*SPEF "ieee 1481-1999"
*DESIGN "ripple_adder_wrapper"
*DATE "20:18:32 Wednesday November 05, 2025"
*VENDOR "The OpenROAD Project"
*PROGRAM "OpenROAD"
*VERSION "edf00dff99f6c40d67a30c0e22a8191c5d2ed9d6"
*DESIGN_FLOW "NAME_SCOPE LOCAL" "PIN_CAP NONE"
*DIVIDER /
*DELIMITER :
*BUS_DELIMITER []
*T_UNIT 1 NS
*C_UNIT 1 PF
*R_UNIT 1 OHM
*L_UNIT 1 HENRY

*NAME_MAP
*3 a[0]
*4 a[1]
*5 a[2]
*6 a[3]
*7 a[4]
*8 a[5]
*9 a[6]
*10 a[7]
*11 b[0]
*12 b[1]
*13 b[2]
*14 b[3]
*15 b[4]
*16 b[5]
*17 b[6]
*18 b[7]
*19 cin
*20 clk
*21 cout
*22 enable
*23 reset
*24 sum[0]
*25 sum[1]
*26 sum[2]
*27 sum[3]
*28 sum[4]
*29 sum[5]
*30 sum[6]
*31 sum[7]
*32 _000_
*33 _001_
*34 _002_
*35 _003_
*36 _004_
*37 _005_
*38 _006_
*39 _007_
*40 _008_
*41 _009_
*42 _010_
*43 _011_
*44 _012_
*45 _013_
*46 _014_
*47 _015_
*48 _016_
*49 _017_
*50 _018_
*51 _019_
*52 _020_
*53 _021_
*54 _022_
*55 _023_
*56 _024_
*57 _025_
*58 _026_
*59 _027_
*60 _028_
*61 _029_
*62 _030_
*63 _031_
*64 _032_
*65 _033_
*66 _034_
*67 _035_
*68 _036_
*69 _037_
*70 _038_
*71 _039_
*72 _040_
*73 _041_
*74 _042_
*75 _043_
*76 _044_
*77 _045_
*78 _046_
*79 _047_
*80 _048_
*81 _049_
*82 _050_
*83 _051_
*84 _052_
*85 _053_
*86 _054_
*87 _055_
*88 _056_
*89 _057_
*90 _058_
*91 _059_
*92 _060_
*93 _061_
*94 _062_
*95 _063_
*96 _064_
*97 _065_
*98 _066_
*99 _067_
*100 _068_
*101 _069_
*102 _070_
*103 _071_
*104 _072_
*105 _073_
*106 _074_
*107 _075_
*108 _076_
*109 _077_
*110 _078_
*111 cin_r
*112 clknet_0_clk
*113 clknet_1_0__leaf_clk
*114 clknet_1_1__leaf_clk
*115 net1
*116 net10
*117 net11
*118 net12
*119 net13
*120 net14
*121 net15
*122 net16
*123 net17
*124 net18
*125 net19
*126 net2
*127 net20
*128 net21
*129 net22
*130 net23
*131 net24
*132 net25
*133 net26
*134 net27
*135 net28
*136 net29
*137 net3
*138 net30
*139 net31
*140 net32
*141 net33
*142 net34
*143 net35
*144 net36
*145 net37
*146 net38
*147 net39
*148 net4
*149 net40
*150 net41
*151 net42
*152 net5
*153 net6
*154 net7
*155 net8
*156 net9
*157 u_rip\.fa0\.a
*158 u_rip\.fa0\.b
*159 u_rip\.gen_fa\[1\]\.fa\.a
*160 u_rip\.gen_fa\[1\]\.fa\.b
*161 u_rip\.gen_fa\[2\]\.fa\.a
*162 u_rip\.gen_fa\[2\]\.fa\.b
*163 u_rip\.gen_fa\[3\]\.fa\.a
*164 u_rip\.gen_fa\[3\]\.fa\.b
*165 u_rip\.gen_fa\[4\]\.fa\.a
*166 u_rip\.gen_fa\[4\]\.fa\.b
*167 u_rip\.gen_fa\[5\]\.fa\.a
*168 u_rip\.gen_fa\[5\]\.fa\.b
*169 u_rip\.gen_fa\[6\]\.fa\.a
*170 u_rip\.gen_fa\[6\]\.fa\.b
*171 u_rip\.gen_fa\[7\]\.fa\.a
*172 u_rip\.gen_fa\[7\]\.fa\.b
*173 FILLER_0_103
*174 FILLER_0_12
*175 FILLER_0_27
*176 FILLER_0_29
*177 FILLER_0_3
*178 FILLER_0_41
*179 FILLER_0_49
*180 FILLER_0_75
*181 FILLER_0_83
*182 FILLER_0_85
*183 FILLER_0_91
*184 FILLER_10_23
*185 FILLER_10_27
*186 FILLER_10_36
*187 FILLER_10_50
*188 FILLER_10_6
*189 FILLER_10_62
*190 FILLER_10_74
*191 FILLER_10_91
*192 FILLER_11_106
*193 FILLER_11_19
*194 FILLER_11_3
*195 FILLER_11_31
*196 FILLER_11_35
*197 FILLER_11_47
*198 FILLER_11_55
*199 FILLER_11_57
*200 FILLER_11_65
*201 FILLER_11_91
*202 FILLER_12_23
*203 FILLER_12_27
*204 FILLER_12_43
*205 FILLER_12_55
*206 FILLER_12_68
*207 FILLER_12_85
*208 FILLER_13_106
*209 FILLER_13_18
*210 FILLER_13_26
*211 FILLER_13_34
*212 FILLER_13_46
*213 FILLER_13_54
*214 FILLER_13_6
*215 FILLER_13_73
*216 FILLER_13_81
*217 FILLER_14_103
*218 FILLER_14_19
*219 FILLER_14_27
*220 FILLER_14_3
*221 FILLER_14_41
*222 FILLER_14_79
*223 FILLER_14_83
*224 FILLER_14_85
*225 FILLER_15_100
*226 FILLER_15_23
*227 FILLER_15_34
*228 FILLER_15_88
*229 FILLER_16_105
*230 FILLER_16_18
*231 FILLER_16_54
*232 FILLER_16_6
*233 FILLER_16_93
*234 FILLER_17_103
*235 FILLER_17_107
*236 FILLER_17_15
*237 FILLER_17_27
*238 FILLER_17_29
*239 FILLER_17_3
*240 FILLER_17_43
*241 FILLER_17_54
*242 FILLER_17_67
*243 FILLER_17_85
*244 FILLER_17_91
*245 FILLER_1_106
*246 FILLER_1_25
*247 FILLER_1_3
*248 FILLER_1_42
*249 FILLER_1_52
*250 FILLER_1_57
*251 FILLER_1_90
*252 FILLER_2_106
*253 FILLER_2_15
*254 FILLER_2_3
*255 FILLER_2_50
*256 FILLER_2_82
*257 FILLER_3_107
*258 FILLER_3_15
*259 FILLER_3_27
*260 FILLER_3_3
*261 FILLER_3_41
*262 FILLER_3_52
*263 FILLER_4_27
*264 FILLER_4_29
*265 FILLER_4_3
*266 FILLER_4_41
*267 FILLER_4_71
*268 FILLER_4_75
*269 FILLER_4_85
*270 FILLER_5_27
*271 FILLER_5_39
*272 FILLER_5_51
*273 FILLER_5_55
*274 FILLER_5_57
*275 FILLER_5_69
*276 FILLER_5_81
*277 FILLER_5_90
*278 FILLER_6_106
*279 FILLER_6_22
*280 FILLER_6_29
*281 FILLER_6_41
*282 FILLER_6_53
*283 FILLER_6_61
*284 FILLER_6_69
*285 FILLER_6_80
*286 FILLER_6_85
*287 FILLER_6_95
*288 FILLER_7_103
*289 FILLER_7_12
*290 FILLER_7_26
*291 FILLER_7_38
*292 FILLER_7_50
*293 FILLER_7_57
*294 FILLER_7_61
*295 FILLER_8_17
*296 FILLER_8_45
*297 FILLER_8_57
*298 FILLER_8_69
*299 FILLER_8_77
*300 FILLER_8_81
*301 FILLER_8_9
*302 FILLER_9_19
*303 FILLER_9_3
*304 FILLER_9_31
*305 FILLER_9_38
*306 FILLER_9_50
*307 FILLER_9_77
*308 FILLER_9_99
*309 PHY_EDGE_ROW_0_Left_18
*310 PHY_EDGE_ROW_0_Right_0
*311 PHY_EDGE_ROW_10_Left_28
*312 PHY_EDGE_ROW_10_Right_10
*313 PHY_EDGE_ROW_11_Left_29
*314 PHY_EDGE_ROW_11_Right_11
*315 PHY_EDGE_ROW_12_Left_30
*316 PHY_EDGE_ROW_12_Right_12
*317 PHY_EDGE_ROW_13_Left_31
*318 PHY_EDGE_ROW_13_Right_13
*319 PHY_EDGE_ROW_14_Left_32
*320 PHY_EDGE_ROW_14_Right_14
*321 PHY_EDGE_ROW_15_Left_33
*322 PHY_EDGE_ROW_15_Right_15
*323 PHY_EDGE_ROW_16_Left_34
*324 PHY_EDGE_ROW_16_Right_16
*325 PHY_EDGE_ROW_17_Left_35
*326 PHY_EDGE_ROW_17_Right_17
*327 PHY_EDGE_ROW_1_Left_19
*328 PHY_EDGE_ROW_1_Right_1
*329 PHY_EDGE_ROW_2_Left_20
*330 PHY_EDGE_ROW_2_Right_2
*331 PHY_EDGE_ROW_3_Left_21
*332 PHY_EDGE_ROW_3_Right_3
*333 PHY_EDGE_ROW_4_Left_22
*334 PHY_EDGE_ROW_4_Right_4
*335 PHY_EDGE_ROW_5_Left_23
*336 PHY_EDGE_ROW_5_Right_5
*337 PHY_EDGE_ROW_6_Left_24
*338 PHY_EDGE_ROW_6_Right_6
*339 PHY_EDGE_ROW_7_Left_25
*340 PHY_EDGE_ROW_7_Right_7
*341 PHY_EDGE_ROW_8_Left_26
*342 PHY_EDGE_ROW_8_Right_8
*343 PHY_EDGE_ROW_9_Left_27
*344 PHY_EDGE_ROW_9_Right_9
*345 TAP_TAPCELL_ROW_0_36
*346 TAP_TAPCELL_ROW_0_37
*347 TAP_TAPCELL_ROW_0_38
*348 TAP_TAPCELL_ROW_10_52
*349 TAP_TAPCELL_ROW_10_53
*350 TAP_TAPCELL_ROW_11_54
*351 TAP_TAPCELL_ROW_12_55
*352 TAP_TAPCELL_ROW_12_56
*353 TAP_TAPCELL_ROW_13_57
*354 TAP_TAPCELL_ROW_14_58
*355 TAP_TAPCELL_ROW_14_59
*356 TAP_TAPCELL_ROW_15_60
*357 TAP_TAPCELL_ROW_16_61
*358 TAP_TAPCELL_ROW_16_62
*359 TAP_TAPCELL_ROW_17_63
*360 TAP_TAPCELL_ROW_17_64
*361 TAP_TAPCELL_ROW_17_65
*362 TAP_TAPCELL_ROW_1_39
*363 TAP_TAPCELL_ROW_2_40
*364 TAP_TAPCELL_ROW_2_41
*365 TAP_TAPCELL_ROW_3_42
*366 TAP_TAPCELL_ROW_4_43
*367 TAP_TAPCELL_ROW_4_44
*368 TAP_TAPCELL_ROW_5_45
*369 TAP_TAPCELL_ROW_6_46
*370 TAP_TAPCELL_ROW_6_47
*371 TAP_TAPCELL_ROW_7_48
*372 TAP_TAPCELL_ROW_8_49
*373 TAP_TAPCELL_ROW_8_50
*374 TAP_TAPCELL_ROW_9_51
*375 _079_
*376 _080_
*377 _081_
*378 _082_
*379 _083_
*380 _084_
*381 _085_
*382 _086_
*383 _087_
*384 _088_
*385 _089_
*386 _090_
*387 _091_
*388 _092_
*389 _093_
*390 _094_
*391 _095_
*392 _096_
*393 _097_
*394 _098_
*395 _099_
*396 _100_
*397 _101_
*398 _102_
*399 _103_
*400 _104_
*401 _105_
*402 _106_
*403 _107_
*404 _108_
*405 _109_
*406 _110_
*407 _111_
*408 _112_
*409 _113_
*410 _114_
*411 _115_
*412 _116_
*413 _117_
*414 _118_
*415 _119_
*416 _120_
*417 _121_
*418 _122_
*419 _123_
*420 _124_
*421 _125_
*422 _126_
*423 _127_
*424 _128_
*425 _129_
*426 _130_
*427 _131_
*428 _132_
*429 _133_
*430 _134_
*431 _135_
*432 _136_
*433 _137_
*434 _138_
*435 _139_
*436 _140_
*437 _141_
*438 _142_
*439 _143_
*440 _144_
*441 _145_
*442 _146_
*443 _147_
*444 _148_
*445 _149_
*446 _150_
*447 _151_
*448 _152_
*449 _153_
*450 _154_
*451 _155_
*452 _156_
*453 _157_
*454 _158_
*455 _159_
*456 _160_
*457 _161_
*458 _162_
*459 _163_
*460 _164_
*461 _165_
*462 _166_
*463 _167_
*464 _168_
*465 _169_
*466 _170_
*467 _171_
*468 _172_
*469 _173_
*470 _174_
*471 _175_
*472 _176_
*473 _177_
*474 _178_
*475 _179_
*476 _180_
*477 _181_
*478 _182_
*479 _183_
*480 clkbuf_0_clk
*481 clkbuf_1_0__f_clk
*482 clkbuf_1_1__f_clk
*483 clkload0
*484 fanout29
*485 fanout30
*486 fanout31
*487 fanout32
*488 fanout33
*489 hold1
*490 hold2
*491 hold3
*492 hold4
*493 hold5
*494 hold6
*495 hold7
*496 hold8
*497 hold9
*498 input1
*499 input10
*500 input11
*501 input12
*502 input13
*503 input14
*504 input15
*505 input16
*506 input17
*507 input18
*508 input19
*509 input2
*510 input3
*511 input4
*512 input5
*513 input6
*514 input7
*515 input8
*516 input9
*517 output20
*518 output21
*519 output22
*520 output23
*521 output24
*522 output25
*523 output26
*524 output27
*525 output28

*PORTS
a[0] I
a[1] I
a[2] I
a[3] I
a[4] I
a[5] I
a[6] I
a[7] I
b[0] I
b[1] I
b[2] I
b[3] I
b[4] I
b[5] I
b[6] I
b[7] I
cin I
clk I
cout O
enable I
reset I
sum[0] O
sum[1] O
sum[2] O
sum[3] O
sum[4] O
sum[5] O
sum[6] O
sum[7] O

*D_NET *3 0.000620863
*CONN
*P a[0] I
*I *498:A I *D sky130_fd_sc_hd__clkbuf_1
*CAP
1 a[0] 0.00028365
2 *498:A 0.00028365
3 *498:A *506:A 2.12457e-05
4 *498:A *16:19 3.23168e-05
*RES
1 a[0] *498:A 49.8062 
*END

*D_NET *4 0.000905825
*CONN
*P a[1] I
*I *509:A I *D sky130_fd_sc_hd__clkbuf_1
*CAP
1 a[1] 0.000452913
2 *509:A 0.000452913
3 *509:A sum[0] 0
4 *509:A *510:A 0
5 *509:A *138:36 0
*RES
1 a[1] *509:A 47.3214 
*END

*D_NET *5 0.00126421
*CONN
*P a[2] I
*I *510:A I *D sky130_fd_sc_hd__clkbuf_1
*CAP
1 a[2] 0.000500453
2 *510:A 0.000500453
3 *510:A *12:9 0
4 *510:A *126:14 0.000226295
5 *510:A *138:36 3.70094e-05
6 *509:A *510:A 0
*RES
1 a[2] *510:A 49.2271 
*END

*D_NET *6 0.00119631
*CONN
*P a[3] I
*I *511:A I *D sky130_fd_sc_hd__clkbuf_1
*CAP
1 a[3] 0.000421065
2 *511:A 0.000421065
3 *511:A sum[2] 8.16187e-05
4 *511:A *14:11 0.000110006
5 *511:A *118:10 3.23422e-05
6 *511:A *138:100 0.000130212
*RES
1 a[3] *511:A 49.0027 
*END

*D_NET *7 0.002937
*CONN
*P a[4] I
*I *512:A I *D sky130_fd_sc_hd__clkbuf_1
*CAP
1 a[4] 0.00094669
2 *512:A 0
3 *7:15 0.00094669
4 *7:15 sum[4] 5.51984e-05
5 *7:15 sum[5] 5.99754e-05
6 *7:15 *394:A 9.67842e-05
7 *7:15 *402:A1 2.18409e-05
8 *7:15 *27:10 0.000109052
9 *7:15 *28:10 5.50049e-05
10 *7:15 *98:14 9.58714e-05
11 *7:15 *102:10 0.00014097
12 *7:15 *132:8 0.000308741
13 *7:15 *152:10 0.00010018
*RES
1 a[4] *7:15 40.3336 
2 *7:15 *512:A 23 
*END

*D_NET *8 0.00100788
*CONN
*P a[5] I
*I *513:A I *D sky130_fd_sc_hd__clkbuf_1
*CAP
1 a[5] 0.000362391
2 *513:A 0
3 *8:13 0.000362391
4 *8:13 *9:17 3.12475e-05
5 *8:13 *16:19 0.00025185
6 *8:13 *136:10 0
7 *8:13 *136:12 0
*RES
1 a[5] *8:13 30.0503 
2 *8:13 *513:A 23 
*END

*D_NET *9 0.000714536
*CONN
*P a[6] I
*I *514:A I *D sky130_fd_sc_hd__clkbuf_1
*CAP
1 a[6] 0.000341644
2 *514:A 0
3 *9:17 0.000341644
4 *9:17 *17:17 0
5 *9:17 *136:10 0
6 *8:13 *9:17 3.12475e-05
*RES
1 a[6] *9:17 27.8627 
2 *9:17 *514:A 23 
*END

*D_NET *10 0.00159551
*CONN
*P a[7] I
*I *515:A I *D sky130_fd_sc_hd__clkbuf_1
*CAP
1 a[7] 0.00072975
2 *515:A 0
3 *10:15 0.00072975
4 *10:15 sum[6] 0
5 *10:15 *124:27 0.000120273
6 *10:15 *140:10 1.57375e-05
*RES
1 a[7] *10:15 30.6807 
2 *10:15 *515:A 23 
*END

*D_NET *11 0.00102674
*CONN
*P b[0] I
*I *516:A I *D sky130_fd_sc_hd__clkbuf_1
*CAP
1 b[0] 0.00049868
2 *516:A 0.00049868
3 *516:A *435:A0 0
4 *516:A *435:A1 2.93845e-05
*RES
1 b[0] *516:A 48.2743 
*END

*D_NET *12 0.00164407
*CONN
*P b[1] I
*I *499:A I *D sky130_fd_sc_hd__clkbuf_1
*CAP
1 b[1] 0.000569684
2 *499:A 0
3 *12:9 0.000569684
4 *12:9 *437:A1 2.4754e-05
5 *12:9 *126:14 0.00026808
6 *12:9 *141:52 0.000184527
7 *12:9 *160:29 2.73396e-05
8 *510:A *12:9 0
*RES
1 b[1] *12:9 28.1329 
2 *12:9 *499:A 23 
*END

*D_NET *13 0.00141768
*CONN
*P b[2] I
*I *500:A I *D sky130_fd_sc_hd__clkbuf_1
*CAP
1 b[2] 0.000621116
2 *500:A 0
3 *13:13 0.000621116
4 *13:13 sum[2] 5.99754e-05
5 *13:13 *439:A0 7.66085e-05
6 *13:13 *91:31 1.34542e-05
7 *13:13 *141:42 0
8 *13:13 *141:52 0
9 *13:13 *162:21 2.54046e-05
*RES
1 b[2] *13:13 33.3322 
2 *13:13 *500:A 23 
*END

*D_NET *14 0.00142428
*CONN
*P b[3] I
*I *501:A I *D sky130_fd_sc_hd__clkbuf_1
*CAP
1 b[3] 0.000474213
2 *501:A 0
3 *14:11 0.000474213
4 *14:11 sum[3] 6.23473e-05
5 *14:11 sum[5] 0
6 *14:11 *118:10 8.25811e-05
7 *14:11 *138:100 0
8 *14:11 *141:42 0.000220922
9 *14:11 *148:8 0
10 *511:A *14:11 0.000110006
*RES
1 b[3] *14:11 29.2665 
2 *14:11 *501:A 23 
*END

*D_NET *15 0.000692405
*CONN
*P b[4] I
*I *502:A I *D sky130_fd_sc_hd__clkbuf_1
*CAP
1 b[4] 0.000272333
2 *502:A 0.000272333
3 *502:A sum[4] 6.23473e-05
4 *502:A *507:A 5.99754e-05
5 *502:A *119:8 2.5415e-05
6 *502:A *141:8 0
*RES
1 b[4] *502:A 49.6415 
*END

*D_NET *16 0.00105396
*CONN
*P b[5] I
*I *503:A I *D sky130_fd_sc_hd__clkbuf_1
*CAP
1 b[5] 0.000376228
2 *503:A 0
3 *16:19 0.000376228
4 *16:19 *153:10 1.73399e-05
5 *498:A *16:19 3.23168e-05
6 *8:13 *16:19 0.00025185
*RES
1 b[5] *16:19 28.7327 
2 *16:19 *503:A 23 
*END

*D_NET *17 0.000658377
*CONN
*P b[6] I
*I *504:A I *D sky130_fd_sc_hd__clkbuf_1
*CAP
1 b[6] 0.000319035
2 *504:A 0
3 *17:17 0.000319035
4 *17:17 *23:11 2.0307e-05
5 *9:17 *17:17 0
*RES
1 b[6] *17:17 27.1584 
2 *17:17 *504:A 23 
*END

*D_NET *18 0.00231499
*CONN
*P b[7] I
*I *505:A I *D sky130_fd_sc_hd__clkbuf_1
*CAP
1 b[7] 0.000673146
2 *505:A 0
3 *18:13 0.000673146
4 *18:13 *494:A 0.000272383
5 *18:13 *122:10 0.000122217
6 *18:13 *124:27 0.000574102
*RES
1 b[7] *18:13 32.9179 
2 *18:13 *505:A 23 
*END

*D_NET *19 0.000586114
*CONN
*P cin I
*I *506:A I *D sky130_fd_sc_hd__clkbuf_1
*CAP
1 cin 0.000243632
2 *506:A 0.000243632
3 *506:A *452:A_N 7.76035e-05
4 *498:A *506:A 2.12457e-05
*RES
1 cin *506:A 47.7832 
*END

*D_NET *20 0.00694518
*CONN
*P clk I
*I *480:A I *D sky130_fd_sc_hd__clkbuf_16
*CAP
1 clk 0.00329617
2 *480:A 0
3 *20:15 0.00329617
4 *20:15 *466:CLK 0
5 *20:15 *23:11 8.06147e-05
6 *20:15 *44:10 0
7 *20:15 *55:14 8.61037e-06
8 *20:15 *58:19 0
9 *20:15 *60:12 0
10 *20:15 *112:14 0
11 *20:15 *112:23 0
12 *20:15 *139:45 0.000263622
*RES
1 clk *20:15 45.6323 
2 *20:15 *480:A 23 
*END

*D_NET *21 0.00127342
*CONN
*P cout O
*I *517:X O *D sky130_fd_sc_hd__buf_2
*CAP
1 cout 0.000559812
2 *517:X 0.000559812
3 cout sum[7] 0
4 cout *124:27 0.000143655
5 cout *138:10 1.01436e-05
*RES
1 *517:X cout 49.6829 
*END

*D_NET *22 0.000598614
*CONN
*P enable I
*I *507:A I *D sky130_fd_sc_hd__buf_1
*CAP
1 enable 0.000269319
2 *507:A 0.000269319
3 *507:A sum[4] 0
4 *507:A *141:8 0
5 *502:A *507:A 5.99754e-05
*RES
1 enable *507:A 48.7538 
*END

*D_NET *23 0.000975153
*CONN
*P reset I
*I *508:A I *D sky130_fd_sc_hd__clkbuf_1
*CAP
1 reset 0.000374662
2 *508:A 0
3 *23:11 0.000374662
4 *23:11 *114:60 0
5 *23:11 *114:62 0
6 *23:11 *125:8 5.28926e-05
7 *23:11 *139:8 7.20154e-05
8 *17:17 *23:11 2.0307e-05
9 *20:15 *23:11 8.06147e-05
*RES
1 reset *23:11 28.3047 
2 *23:11 *508:A 23 
*END

*D_NET *24 0.000993477
*CONN
*P sum[0] O
*I *518:X O *D sky130_fd_sc_hd__buf_2
*CAP
1 sum[0] 0.000496739
2 *518:X 0.000496739
3 *509:A sum[0] 0
*RES
1 *518:X sum[0] 47.86 
*END

*D_NET *25 0.000944957
*CONN
*P sum[1] O
*I *519:X O *D sky130_fd_sc_hd__buf_2
*CAP
1 sum[1] 0.00045391
2 *519:X 0.00045391
3 sum[1] *141:52 3.71369e-05
*RES
1 *519:X sum[1] 47.0936 
*END

*D_NET *26 0.000759726
*CONN
*P sum[2] O
*I *520:X O *D sky130_fd_sc_hd__buf_2
*CAP
1 sum[2] 0.000235748
2 *520:X 0.000235748
3 sum[2] *91:31 7.20154e-05
4 sum[2] *141:42 7.46212e-05
5 *511:A sum[2] 8.16187e-05
6 *13:13 sum[2] 5.99754e-05
*RES
1 *520:X sum[2] 47.8691 
*END

*D_NET *27 0.00112925
*CONN
*P sum[3] O
*I *521:X O *D sky130_fd_sc_hd__buf_2
*CAP
1 sum[3] 0.000100747
2 *521:X 0.000311068
3 *27:10 0.000411815
4 sum[3] sum[5] 5.99754e-05
5 *27:10 *133:10 7.42471e-05
6 *7:15 *27:10 0.000109052
7 *14:11 sum[3] 6.23473e-05
*RES
1 *521:X *27:10 43.5618 
2 *27:10 sum[3] 8.58613 
*END

*D_NET *28 0.00171984
*CONN
*P sum[4] O
*I *522:X O *D sky130_fd_sc_hd__buf_2
*CAP
1 sum[4] 0.00023568
2 *522:X 0.000338437
3 *28:10 0.000574116
4 *28:10 *399:B 0
5 *28:10 *402:B1_N 0
6 *28:10 *29:8 2.24608e-05
7 *28:10 *98:27 0.000141879
8 *28:10 *132:8 0.000100343
9 *28:10 *133:10 3.06079e-05
10 *28:10 *141:14 0.00010377
11 *502:A sum[4] 6.23473e-05
12 *507:A sum[4] 0
13 *7:15 sum[4] 5.51984e-05
14 *7:15 *28:10 5.50049e-05
*RES
1 *522:X *28:10 45.9854 
2 *28:10 sum[4] 8.9296 
*END

*D_NET *29 0.0014872
*CONN
*P sum[5] O
*I *523:X O *D sky130_fd_sc_hd__buf_2
*CAP
1 sum[5] 0.000199639
2 *523:X 0.000211115
3 *29:8 0.000410753
4 *29:8 *402:A1 0
5 *29:8 *131:10 8.16356e-05
6 *29:8 *133:10 0.000441642
7 sum[3] sum[5] 5.99754e-05
8 *7:15 sum[5] 5.99754e-05
9 *14:11 sum[5] 0
10 *28:10 *29:8 2.24608e-05
*RES
1 *523:X *29:8 43.9554 
2 *29:8 sum[5] 8.84373 
*END

*D_NET *30 0.00121978
*CONN
*P sum[6] O
*I *524:X O *D sky130_fd_sc_hd__buf_2
*CAP
1 sum[6] 0.000609444
2 *524:X 0.000609444
3 sum[6] *140:10 8.91468e-07
4 *10:15 sum[6] 0
*RES
1 *524:X sum[6] 49.6829 
*END

*D_NET *31 0.00126827
*CONN
*P sum[7] O
*I *525:X O *D sky130_fd_sc_hd__buf_2
*CAP
1 sum[7] 0.000562307
2 *525:X 0.000562307
3 sum[7] *124:27 0.000143655
4 cout sum[7] 0
*RES
1 *525:X sum[7] 49.6829 
*END

*D_NET *32 0.000481531
*CONN
*I *454:D I *D sky130_fd_sc_hd__dfxtp_1
*I *379:Y O *D sky130_fd_sc_hd__nor3_1
*CAP
1 *454:D 9.80959e-05
2 *379:Y 9.80959e-05
3 *454:D *454:CLK 1.14154e-05
4 *454:D *113:22 0.000105347
5 *454:D *113:26 5.70419e-05
6 *454:D *140:70 9.58918e-05
7 *454:D *140:93 1.5643e-05
*RES
1 *379:Y *454:D 49.5629 
*END

*D_NET *33 0.000490622
*CONN
*I *455:D I *D sky130_fd_sc_hd__dfxtp_1
*I *385:X O *D sky130_fd_sc_hd__and3b_1
*CAP
1 *455:D 1.93686e-05
2 *385:X 0.000119858
3 *33:8 0.000139227
4 *455:D *86:25 3.68467e-05
5 *455:D *113:95 8.90341e-05
6 *33:8 *421:A1 0
7 *33:8 *138:24 0
8 *33:8 *138:36 0
9 *33:8 *160:44 8.62876e-05
*RES
1 *385:X *33:8 39.9057 
2 *33:8 *455:D 38.9943 
*END

*D_NET *34 0.0018949
*CONN
*I *496:A I *D sky130_fd_sc_hd__dlygate4sd3_1
*I *390:X O *D sky130_fd_sc_hd__o21a_1
*CAP
1 *496:A 1.24964e-05
2 *390:X 0.000689414
3 *34:10 0.00070191
4 *496:A *92:14 3.22879e-05
5 *496:A *138:100 5.50106e-05
6 *34:10 *390:A1 2.4754e-05
7 *34:10 *456:D 3.24476e-06
8 *34:10 *90:25 2.64616e-05
9 *34:10 *91:18 9.84794e-05
10 *34:10 *138:100 0.000250839
11 *34:10 *141:42 0
*RES
1 *390:X *34:10 48.4814 
2 *34:10 *496:A 38.6214 
*END

*D_NET *35 0.000327417
*CONN
*I *457:D I *D sky130_fd_sc_hd__dfxtp_1
*I *396:X O *D sky130_fd_sc_hd__and3b_1
*CAP
1 *457:D 0.000135356
2 *396:X 0.000135356
3 *457:D *113:155 5.67058e-05
*RES
1 *396:X *457:D 48.3873 
*END

*D_NET *36 0.0010048
*CONN
*I *492:A I *D sky130_fd_sc_hd__dlygate4sd3_1
*I *401:X O *D sky130_fd_sc_hd__o21a_1
*CAP
1 *492:A 0
2 *401:X 0.000316585
3 *36:10 0.000316585
4 *36:10 *400:A1 2.92911e-06
5 *36:10 *402:A1 4.23714e-05
6 *36:10 *101:16 0.000143655
7 *36:10 *114:130 4.39607e-05
8 *36:10 *114:136 0.000138718
*RES
1 *401:X *36:10 43.3857 
2 *36:10 *492:A 38 
*END

*D_NET *37 0.00411212
*CONN
*I *459:D I *D sky130_fd_sc_hd__dfxtp_1
*I *407:X O *D sky130_fd_sc_hd__and3b_1
*CAP
1 *459:D 0
2 *407:X 0.00169467
3 *37:10 0.00169467
4 *37:10 *397:A_N 2.44913e-05
5 *37:10 *398:A2 0.000283793
6 *37:10 *398:B1_N 5.2894e-05
7 *37:10 *405:B 2.02978e-05
8 *37:10 *407:B 1.79509e-05
9 *37:10 *428:B 7.97636e-05
10 *37:10 *44:10 6.71408e-06
11 *37:10 *97:33 3.97702e-05
12 *37:10 *99:12 0.000197101
*RES
1 *407:X *37:10 47.9245 
2 *37:10 *459:D 23 
*END

*D_NET *38 0.000784842
*CONN
*I *490:A I *D sky130_fd_sc_hd__dlygate4sd3_1
*I *412:X O *D sky130_fd_sc_hd__o21a_1
*CAP
1 *490:A 0
2 *412:X 0.00030185
3 *38:10 0.00030185
4 *38:10 *411:A1 9.84851e-05
5 *38:10 *70:10 0
6 *38:10 *114:50 8.26569e-05
7 *38:10 *140:22 0
8 *38:10 *143:8 0
*RES
1 *412:X *38:10 43.8207 
2 *38:10 *490:A 38 
*END

*D_NET *39 0.000610612
*CONN
*I *461:D I *D sky130_fd_sc_hd__dfxtp_1
*I *418:X O *D sky130_fd_sc_hd__and3b_1
*CAP
1 *461:D 6.24925e-05
2 *418:X 0.000138212
3 *39:10 0.000200705
4 *39:10 *61:10 1.01436e-05
5 *39:10 *114:122 2.93845e-05
6 *39:10 *138:10 0
7 *39:10 *172:21 0.000169674
*RES
1 *418:X *39:10 40.8793 
2 *39:10 *461:D 38.9943 
*END

*D_NET *40 0.000622911
*CONN
*I *462:D I *D sky130_fd_sc_hd__dfxtp_1
*I *420:X O *D sky130_fd_sc_hd__and2b_1
*CAP
1 *462:D 6.25806e-05
2 *420:X 0.000101318
3 *40:8 0.000163899
4 *462:D *123:10 9.98748e-05
5 *40:8 *115:10 0.000195238
6 *40:8 *140:40 0
*RES
1 *420:X *40:8 40.61 
2 *40:8 *462:D 39.1445 
*END

*D_NET *41 0.000439008
*CONN
*I *463:D I *D sky130_fd_sc_hd__dfxtp_1
*I *422:X O *D sky130_fd_sc_hd__and2b_1
*CAP
1 *463:D 9.18168e-05
2 *422:X 0.000127687
3 *41:8 0.000219504
*RES
1 *422:X *41:8 40.2579 
2 *41:8 *463:D 39.6209 
*END

*D_NET *42 0.00100795
*CONN
*I *464:D I *D sky130_fd_sc_hd__dfxtp_1
*I *424:X O *D sky130_fd_sc_hd__and2b_1
*CAP
1 *464:D 0.000206172
2 *424:X 9.53488e-05
3 *42:8 0.000301521
4 *464:D *422:B 1.76557e-05
5 *464:D *85:6 0.00038725
6 *42:8 *65:10 0
*RES
1 *424:X *42:8 39.5536 
2 *42:8 *464:D 42.7487 
*END

*D_NET *43 0.000524159
*CONN
*I *465:D I *D sky130_fd_sc_hd__dfxtp_1
*I *426:X O *D sky130_fd_sc_hd__and2b_1
*CAP
1 *465:D 8.8967e-05
2 *426:X 0.000117355
3 *43:8 0.000206322
4 *465:D *465:CLK 4.9054e-06
5 *465:D *113:147 5.12328e-05
6 *43:8 *392:B 0
7 *43:8 *113:128 2.54046e-05
8 *43:8 *113:171 2.99716e-05
*RES
1 *426:X *43:8 40.2579 
2 *43:8 *465:D 39.6209 
*END

*D_NET *44 0.000482842
*CONN
*I *466:D I *D sky130_fd_sc_hd__dfxtp_1
*I *428:X O *D sky130_fd_sc_hd__and2b_1
*CAP
1 *466:D 6.24925e-05
2 *428:X 0.000173256
3 *44:10 0.000235748
4 *44:10 *466:CLK 4.6318e-06
5 *44:10 *139:77 0
6 *20:15 *44:10 0
7 *37:10 *44:10 6.71408e-06
*RES
1 *428:X *44:10 40.8793 
2 *44:10 *466:D 38.9943 
*END

*D_NET *45 0.000325868
*CONN
*I *467:D I *D sky130_fd_sc_hd__dfxtp_1
*I *430:X O *D sky130_fd_sc_hd__and2b_1
*CAP
1 *467:D 1.5148e-05
2 *430:X 0.000137493
3 *45:10 0.000152641
4 *467:D *154:10 3.24476e-06
5 *45:10 *430:B 1.73399e-05
6 *45:10 *136:10 0
7 *45:10 *140:28 0
*RES
1 *430:X *45:10 40.175 
2 *45:10 *467:D 38.1916 
*END

*D_NET *46 0.00034118
*CONN
*I *468:D I *D sky130_fd_sc_hd__dfxtp_1
*I *432:X O *D sky130_fd_sc_hd__and2b_1
*CAP
1 *468:D 1.66233e-05
2 *432:X 0.000118753
3 *46:10 0.000135377
4 *46:10 *467:CLK 3.81391e-05
5 *46:10 *136:108 3.22879e-05
6 *46:10 *140:26 0
7 *46:10 *169:12 0
*RES
1 *432:X *46:10 40.175 
2 *46:10 *468:D 38.1916 
*END

*D_NET *47 0.000809
*CONN
*I *469:D I *D sky130_fd_sc_hd__dfxtp_1
*I *434:X O *D sky130_fd_sc_hd__and2b_1
*CAP
1 *469:D 8.56515e-05
2 *434:X 0.000151763
3 *47:10 0.000237414
4 *469:D *114:42 0.000140991
5 *47:10 *433:A0 0
6 *47:10 *58:6 2.93431e-05
7 *47:10 *140:22 0.000163838
*RES
1 *434:X *47:10 40.8793 
2 *47:10 *469:D 39.6209 
*END

*D_NET *48 0.000516127
*CONN
*I *470:D I *D sky130_fd_sc_hd__dfxtp_1
*I *436:X O *D sky130_fd_sc_hd__and2b_1
*CAP
1 *470:D 5.87313e-05
2 *436:X 0.000126229
3 *48:8 0.00018496
4 *470:D *113:26 0.000146207
5 *48:8 *136:54 0
*RES
1 *436:X *48:8 40.2579 
2 *48:8 *470:D 39.6209 
*END

*D_NET *49 0.000435666
*CONN
*I *471:D I *D sky130_fd_sc_hd__dfxtp_1
*I *438:X O *D sky130_fd_sc_hd__and2b_1
*CAP
1 *471:D 9.26771e-06
2 *438:X 0.00018211
3 *49:12 0.000191378
4 *471:D *86:25 4.9054e-06
5 *471:D *113:82 1.64354e-05
6 *49:12 *138:36 0
7 *49:12 *140:93 3.15694e-05
8 *49:12 *160:29 0
*RES
1 *438:X *49:12 41.0243 
2 *49:12 *471:D 38.1916 
*END

*D_NET *50 0.000396955
*CONN
*I *472:D I *D sky130_fd_sc_hd__dfxtp_1
*I *440:X O *D sky130_fd_sc_hd__and2b_1
*CAP
1 *472:D 0.000103099
2 *440:X 9.53785e-05
3 *50:8 0.000198477
4 *50:8 *113:95 0
5 *50:8 *141:42 0
*RES
1 *440:X *50:8 39.5536 
2 *50:8 *472:D 39.6209 
*END

*D_NET *51 0.000751121
*CONN
*I *473:D I *D sky130_fd_sc_hd__dfxtp_1
*I *442:X O *D sky130_fd_sc_hd__and2b_1
*CAP
1 *473:D 5.82894e-05
2 *442:X 0.000124429
3 *51:10 0.000182718
4 *473:D *425:A1 8.52864e-05
5 *473:D *164:8 1.06063e-06
6 *51:10 *95:14 6.32792e-05
7 *51:10 *97:10 0.000196818
8 *51:10 *113:155 3.92407e-05
*RES
1 *442:X *51:10 40.8793 
2 *51:10 *473:D 38.9943 
*END

*D_NET *52 0.000374388
*CONN
*I *474:D I *D sky130_fd_sc_hd__dfxtp_1
*I *444:X O *D sky130_fd_sc_hd__and2b_1
*CAP
1 *474:D 6.33428e-05
2 *444:X 6.56939e-05
3 *52:8 0.000129037
4 *52:8 *114:130 0.000116314
*RES
1 *444:X *52:8 39.5536 
2 *52:8 *474:D 38.9373 
*END

*D_NET *53 0.000802243
*CONN
*I *475:D I *D sky130_fd_sc_hd__dfxtp_1
*I *446:X O *D sky130_fd_sc_hd__and2b_1
*CAP
1 *475:D 0.000114585
2 *446:X 8.14443e-05
3 *53:8 0.00019603
4 *475:D *445:A0 9.61128e-05
5 *475:D *76:10 9.84851e-05
6 *475:D *113:171 0.000129308
7 *53:8 *76:10 8.62783e-05
8 *53:8 *140:40 0
*RES
1 *446:X *53:8 39.5536 
2 *53:8 *475:D 41.3195 
*END

*D_NET *54 0.000400297
*CONN
*I *476:D I *D sky130_fd_sc_hd__dfxtp_1
*I *448:X O *D sky130_fd_sc_hd__and2b_1
*CAP
1 *476:D 1.58638e-05
2 *448:X 0.000144198
3 *54:10 0.000160062
4 *54:10 *114:60 1.44546e-05
5 *54:10 *114:62 4.83778e-05
6 *54:10 *139:28 1.73399e-05
*RES
1 *448:X *54:10 40.8793 
2 *54:10 *476:D 38.1916 
*END

*D_NET *55 0.00156632
*CONN
*I *477:D I *D sky130_fd_sc_hd__dfxtp_1
*I *450:X O *D sky130_fd_sc_hd__and2b_1
*CAP
1 *477:D 8.45249e-06
2 *450:X 0.00056177
3 *55:14 0.000570223
4 *477:D *477:CLK 1.64354e-05
5 *55:14 *479:CLK 0
6 *55:14 *485:A 2.93845e-05
7 *55:14 *60:12 6.28497e-05
8 *55:14 *78:10 8.62876e-05
9 *55:14 *114:10 0
10 *55:14 *114:34 0
11 *55:14 *122:10 6.08751e-05
12 *55:14 *139:45 0.000161429
13 *55:14 *147:10 0
14 *20:15 *55:14 8.61037e-06
*RES
1 *450:X *55:14 49.745 
2 *55:14 *477:D 38.1916 
*END

*D_NET *56 0.000433386
*CONN
*I *478:D I *D sky130_fd_sc_hd__dfxtp_1
*I *452:X O *D sky130_fd_sc_hd__and2b_1
*CAP
1 *478:D 1.31802e-05
2 *452:X 0.000144594
3 *56:10 0.000157774
4 *56:10 *462:CLK 4.83778e-05
5 *56:10 *79:6 5.50049e-05
6 *56:10 *113:37 1.44546e-05
7 *56:10 *136:40 0
*RES
1 *452:X *56:10 40.8793 
2 *56:10 *478:D 38.1916 
*END

*D_NET *57 0.00166485
*CONN
*I *494:A I *D sky130_fd_sc_hd__dlygate4sd3_1
*I *453:Y O *D sky130_fd_sc_hd__a21oi_1
*CAP
1 *494:A 4.08391e-05
2 *453:Y 0.000346382
3 *57:10 0.000387221
4 *494:A *122:10 0.000272383
5 *57:10 *418:C 3.3123e-05
6 *57:10 *453:B1 6.48142e-05
7 *57:10 *461:CLK 1.59094e-05
8 *57:10 *479:CLK 0
9 *57:10 *62:10 5.97612e-05
10 *57:10 *114:34 0
11 *57:10 *122:10 0
12 *57:10 *138:10 0
13 *57:10 *147:10 0.000164282
14 *57:10 *172:21 7.75329e-06
15 *18:13 *494:A 0.000272383
*RES
1 *453:Y *57:10 44.7529 
2 *57:10 *494:A 41.0036 
*END

*D_NET *58 0.00195523
*CONN
*I *414:A_N I *D sky130_fd_sc_hd__nand2b_1
*I *415:B I *D sky130_fd_sc_hd__xnor2_1
*I *413:Y O *D sky130_fd_sc_hd__a21boi_1
*CAP
1 *414:A_N 0
2 *415:B 0
3 *413:Y 0.000215175
4 *58:19 0.000223792
5 *58:6 0.000438967
6 *58:6 *139:28 7.27895e-05
7 *58:6 *139:39 0.00027928
8 *58:6 *140:22 0.000274229
9 *58:19 *415:A 0.000283842
10 *58:19 *433:A0 9.01352e-05
11 *58:19 *139:39 4.76718e-05
12 *20:15 *58:19 0
13 *47:10 *58:6 2.93431e-05
*RES
1 *413:Y *58:6 29.815 
2 *58:6 *415:B 23 
3 *58:6 *58:19 35.4893 
4 *58:19 *414:A_N 23 
*END

*D_NET *59 0.00160198
*CONN
*I *453:A1 I *D sky130_fd_sc_hd__a21oi_1
*I *414:Y O *D sky130_fd_sc_hd__nand2b_1
*CAP
1 *453:A1 0
2 *414:Y 0.000460686
3 *59:6 0.000460686
4 *59:6 *461:CLK 0.000226306
5 *59:6 *114:38 0.000354122
6 *59:6 *114:42 0.00010018
*RES
1 *414:Y *59:6 30.2914 
2 *59:6 *453:A1 23 
*END

*D_NET *60 0.00407973
*CONN
*I *417:B I *D sky130_fd_sc_hd__nand2_1
*I *416:B I *D sky130_fd_sc_hd__or2_1
*I *415:Y O *D sky130_fd_sc_hd__xnor2_1
*CAP
1 *417:B 0
2 *416:B 0
3 *415:Y 0.000395433
4 *60:25 0.000884117
5 *60:12 0.000193345
6 *60:6 0.0014729
7 *60:6 *139:39 0.000177595
8 *60:6 *139:65 0.0001164
9 *60:12 *466:CLK 0.000144158
10 *60:12 *114:10 4.85126e-05
11 *60:25 *418:C 0.000139352
12 *60:25 *114:122 0.000158404
13 *60:25 *114:130 0
14 *60:25 *135:8 0
15 *60:25 *138:10 0.000126452
16 *60:25 *138:12 3.9185e-05
17 *60:25 *139:65 0.00012103
18 *20:15 *60:12 0
19 *55:14 *60:12 6.28497e-05
*RES
1 *415:Y *60:6 28.8621 
2 *60:6 *60:12 35.075 
3 *60:12 *416:B 23 
4 *60:6 *60:25 45.2043 
5 *60:25 *417:B 23 
*END

*D_NET *61 0.00141349
*CONN
*I *418:B I *D sky130_fd_sc_hd__and3b_1
*I *416:X O *D sky130_fd_sc_hd__or2_1
*CAP
1 *418:B 0
2 *416:X 0.000516923
3 *61:10 0.000516923
4 *61:10 *416:A 6.71074e-05
5 *61:10 *138:10 0
6 *61:10 *138:12 0
7 *61:10 *139:77 0.000195238
8 *61:10 *172:21 0.00010716
9 *39:10 *61:10 1.01436e-05
*RES
1 *416:X *61:10 47.2593 
2 *61:10 *418:B 38 
*END

*D_NET *62 0.00241005
*CONN
*I *453:A2 I *D sky130_fd_sc_hd__a21oi_1
*I *418:C I *D sky130_fd_sc_hd__and3b_1
*I *417:Y O *D sky130_fd_sc_hd__nand2_1
*CAP
1 *453:A2 0
2 *418:C 0.00015781
3 *417:Y 0.000411366
4 *62:10 0.000569176
5 *418:C *453:B1 5.76076e-05
6 *418:C *114:122 7.15126e-05
7 *418:C *139:71 1.19692e-05
8 *418:C *172:21 0.000277714
9 *62:10 *449:A0 5.3304e-05
10 *62:10 *493:A 0.000428639
11 *62:10 *172:21 0.000138718
12 *57:10 *418:C 3.3123e-05
13 *57:10 *62:10 5.97612e-05
14 *60:25 *418:C 0.000139352
*RES
1 *417:Y *62:10 45.2914 
2 *62:10 *418:C 43.2407 
3 *62:10 *453:A2 38 
*END

*D_NET *63 0.000669858
*CONN
*I *420:B I *D sky130_fd_sc_hd__and2b_1
*I *419:X O *D sky130_fd_sc_hd__mux2_1
*CAP
1 *420:B 0
2 *419:X 0.000164497
3 *63:8 0.000164497
4 *63:8 *452:A_N 0
5 *63:8 *462:CLK 4.48568e-05
6 *63:8 *115:10 0.000296008
7 *63:8 *140:40 0
*RES
1 *419:X *63:8 42.3707 
2 *63:8 *420:B 38 
*END

*D_NET *64 0.0025624
*CONN
*I *422:B I *D sky130_fd_sc_hd__and2b_1
*I *421:X O *D sky130_fd_sc_hd__mux2_1
*CAP
1 *422:B 0.000418397
2 *421:X 0.00017833
3 *64:10 0.000596726
4 *422:B *381:A_N 2.02872e-05
5 *422:B *381:B 7.80291e-06
6 *422:B *84:10 0.000177519
7 *422:B *85:6 0.000128391
8 *64:10 *381:B 0
9 *64:10 *421:S 0.00010018
10 *64:10 *423:A1 0.000268873
11 *64:10 *464:CLK 2.55642e-05
12 *64:10 *88:10 0.00044107
13 *64:10 *113:18 0.000110922
14 *64:10 *140:97 5.50106e-05
15 *64:10 *161:14 1.56665e-05
16 *464:D *422:B 1.76557e-05
*RES
1 *421:X *64:10 44.815 
2 *64:10 *422:B 46.2443 
*END

*D_NET *65 0.00208014
*CONN
*I *424:B I *D sky130_fd_sc_hd__and2b_1
*I *423:X O *D sky130_fd_sc_hd__mux2_1
*CAP
1 *424:B 0.000214515
2 *423:X 0.000489694
3 *65:10 0.00070421
4 *424:B *138:73 0.000443673
5 *65:10 *421:A0 9.67842e-05
6 *65:10 *464:CLK 3.3123e-05
7 *65:10 *113:14 0
8 *65:10 *113:18 9.8139e-05
9 *65:10 *113:128 0
10 *65:10 *140:93 0
11 *42:8 *65:10 0
*RES
1 *423:X *65:10 46.2857 
2 *65:10 *424:B 42.9093 
*END

*D_NET *66 0.00106586
*CONN
*I *426:B I *D sky130_fd_sc_hd__and2b_1
*I *425:X O *D sky130_fd_sc_hd__mux2_1
*CAP
1 *426:B 0.000265287
2 *425:X 4.35455e-05
3 *66:8 0.000308832
4 *426:B *393:A 4.9662e-05
5 *426:B *138:65 0.000158902