*SPEF "ieee 1481-1999"
*DESIGN "ripple_adder_wrapper"
*DATE "20:18:32 Wednesday November 05, 2025"
*VENDOR "The OpenROAD Project"
*PROGRAM "OpenROAD"
*VERSION "edf00dff99f6c40d67a30c0e22a8191c5d2ed9d6"
*DESIGN_FLOW "NAME_SCOPE LOCAL" "PIN_CAP NONE"
*DIVIDER /
*DELIMITER :
*BUS_DELIMITER []
*T_UNIT 1 NS
*C_UNIT 1 PF
*R_UNIT 1 OHM
*L_UNIT 1 HENRY

*NAME_MAP
*3 a[0]
*4 a[1]
*5 a[2]
*6 a[3]
*7 a[4]
*8 a[5]
*9 a[6]
*10 a[7]
*11 b[0]
*12 b[1]
*13 b[2]
*14 b[3]
*15 b[4]
*16 b[5]
*17 b[6]
*18 b[7]
*19 cin
*20 clk
*21 cout
*22 enable
*23 reset
*24 sum[0]
*25 sum[1]
*26 sum[2]
*27 sum[3]
*28 sum[4]
*29 sum[5]
*30 sum[6]
*31 sum[7]
*32 _000_
*33 _001_
*34 _002_
*35 _003_
*36 _004_
*37 _005_
*38 _006_
*39 _007_
*40 _008_
*41 _009_
*42 _010_
*43 _011_
*44 _012_
*45 _013_
*46 _014_
*47 _015_
*48 _016_
*49 _017_
*50 _018_
*51 _019_
*52 _020_
*53 _021_
*54 _022_
*55 _023_
*56 _024_
*57 _025_
*58 _026_
*59 _027_
*60 _028_
*61 _029_
*62 _030_
*63 _031_
*64 _032_
*65 _033_
*66 _034_
*67 _035_
*68 _036_
*69 _037_
*70 _038_
*71 _039_
*72 _040_
*73 _041_
*74 _042_
*75 _043_
*76 _044_
*77 _045_
*78 _046_
*79 _047_
*80 _048_
*81 _049_
*82 _050_
*83 _051_
*84 _052_
*85 _053_
*86 _054_
*87 _055_
*88 _056_
*89 _057_
*90 _058_
*91 _059_
*92 _060_
*93 _061_
*94 _062_
*95 _063_
*96 _064_
*97 _065_
*98 _066_
*99 _067_
*100 _068_
*101 _069_
*102 _070_
*103 _071_
*104 _072_
*105 _073_
*106 _074_
*107 _075_
*108 _076_
*109 _077_
*110 _078_
*111 cin_r
*112 clknet_0_clk
*113 clknet_1_0__leaf_clk
*114 clknet_1_1__leaf_clk
*115 net1
*116 net10
*117 net11
*118 net12
*119 net13
*120 net14
*121 net15
*122 net16
*123 net17
*124 net18
*125 net19
*126 net2
*127 net20
*128 net21
*129 net22
*130 net23
*131 net24
*132 net25
*133 net26
*134 net27
*135 net28
*136 net29
*137 net3
*138 net30
*139 net31
*140 net32
*141 net33
*142 net34
*143 net35
*144 net36
*145 net37
*146 net38
*147 net39
*148 net4
*149 net40
*150 net41
*151 net42
*152 net5
*153 net6
*154 net7
*155 net8
*156 net9
*157 u_rip\.fa0\.a
*158 u_rip\.fa0\.b
*159 u_rip\.gen_fa\[1\]\.fa\.a
*160 u_rip\.gen_fa\[1\]\.fa\.b
*161 u_rip\.gen_fa\[2\]\.fa\.a
*162 u_rip\.gen_fa\[2\]\.fa\.b
*163 u_rip\.gen_fa\[3\]\.fa\.a
*164 u_rip\.gen_fa\[3\]\.fa\.b
*165 u_rip\.gen_fa\[4\]\.fa\.a
*166 u_rip\.gen_fa\[4\]\.fa\.b
*167 u_rip\.gen_fa\[5\]\.fa\.a
*168 u_rip\.gen_fa\[5\]\.fa\.b
*169 u_rip\.gen_fa\[6\]\.fa\.a
*170 u_rip\.gen_fa\[6\]\.fa\.b
*171 u_rip\.gen_fa\[7\]\.fa\.a
*172 u_rip\.gen_fa\[7\]\.fa\.b
*173 FILLER_0_103
*174 FILLER_0_12
*175 FILLER_0_27
*176 FILLER_0_29
*177 FILLER_0_3
*178 FILLER_0_41
*179 FILLER_0_49
*180 FILLER_0_75
*181 FILLER_0_83
*182 FILLER_0_85
*183 FILLER_0_91
*184 FILLER_10_23
*185 FILLER_10_27
*186 FILLER_10_36
*187 FILLER_10_50
*188 FILLER_10_6
*189 FILLER_10_62
*190 FILLER_10_74
*191 FILLER_10_91
*192 FILLER_11_106
*193 FILLER_11_19
*194 FILLER_11_3
*195 FILLER_11_31
*196 FILLER_11_35
*197 FILLER_11_47
*198 FILLER_11_55
*199 FILLER_11_57
*200 FILLER_11_65
*201 FILLER_11_91
*202 FILLER_12_23
*203 FILLER_12_27
*204 FILLER_12_43
*205 FILLER_12_55
*206 FILLER_12_68
*207 FILLER_12_85
*208 FILLER_13_106
*209 FILLER_13_18
*210 FILLER_13_26
*211 FILLER_13_34
*212 FILLER_13_46
*213 FILLER_13_54
*214 FILLER_13_6
*215 FILLER_13_73
*216 FILLER_13_81
*217 FILLER_14_103
*218 FILLER_14_19
*219 FILLER_14_27
*220 FILLER_14_3
*221 FILLER_14_41
*222 FILLER_14_79
*223 FILLER_14_83
*224 FILLER_14_85
*225 FILLER_15_100
*226 FILLER_15_23
*227 FILLER_15_34
*228 FILLER_15_88
*229 FILLER_16_105
*230 FILLER_16_18
*231 FILLER_16_54
*232 FILLER_16_6
*233 FILLER_16_93
*234 FILLER_17_103
*235 FILLER_17_107
*236 FILLER_17_15
*237 FILLER_17_27
*238 FILLER_17_29
*239 FILLER_17_3
*240 FILLER_17_43
*241 FILLER_17_54
*242 FILLER_17_67
*243 FILLER_17_85
*244 FILLER_17_91
*245 FILLER_1_106
*246 FILLER_1_25
*247 FILLER_1_3
*248 FILLER_1_42
*249 FILLER_1_52
*250 FILLER_1_57
*251 FILLER_1_90
*252 FILLER_2_106
*253 FILLER_2_15
*254 FILLER_2_3
*255 FILLER_2_50
*256 FILLER_2_82
*257 FILLER_3_107
*258 FILLER_3_15
*259 FILLER_3_27
*260 FILLER_3_3
*261 FILLER_3_41
*262 FILLER_3_52
*263 FILLER_4_27
*264 FILLER_4_29
*265 FILLER_4_3
*266 FILLER_4_41
*267 FILLER_4_71
*268 FILLER_4_75
*269 FILLER_4_85
*270 FILLER_5_27
*271 FILLER_5_39
*272 FILLER_5_51
*273 FILLER_5_55
*274 FILLER_5_57
*275 FILLER_5_69
*276 FILLER_5_81
*277 FILLER_5_90
*278 FILLER_6_106
*279 FILLER_6_22
*280 FILLER_6_29
*281 FILLER_6_41
*282 FILLER_6_53
*283 FILLER_6_61
*284 FILLER_6_69
*285 FILLER_6_80
*286 FILLER_6_85
*287 FILLER_6_95
*288 FILLER_7_103
*289 FILLER_7_12
*290 FILLER_7_26
*291 FILLER_7_38
*292 FILLER_7_50
*293 FILLER_7_57
*294 FILLER_7_61
*295 FILLER_8_17
*296 FILLER_8_45
*297 FILLER_8_57
*298 FILLER_8_69
*299 FILLER_8_77
*300 FILLER_8_81
*301 FILLER_8_9
*302 FILLER_9_19
*303 FILLER_9_3
*304 FILLER_9_31
*305 FILLER_9_38
*306 FILLER_9_50
*307 FILLER_9_77
*308 FILLER_9_99
*309 PHY_EDGE_ROW_0_Left_18
*310 PHY_EDGE_ROW_0_Right_0
*311 PHY_EDGE_ROW_10_Left_28
*312 PHY_EDGE_ROW_10_Right_10
*313 PHY_EDGE_ROW_11_Left_29
*314 PHY_EDGE_ROW_11_Right_11
*315 PHY_EDGE_ROW_12_Left_30
*316 PHY_EDGE_ROW_12_Right_12
*317 PHY_EDGE_ROW_13_Left_31
*318 PHY_EDGE_ROW_13_Right_13
*319 PHY_EDGE_ROW_14_Left_32
*320 PHY_EDGE_ROW_14_Right_14
*321 PHY_EDGE_ROW_15_Left_33
*322 PHY_EDGE_ROW_15_Right_15
*323 PHY_EDGE_ROW_16_Left_34
*324 PHY_EDGE_ROW_16_Right_16
*325 PHY_EDGE_ROW_17_Left_35
*326 PHY_EDGE_ROW_17_Right_17
*327 PHY_EDGE_ROW_1_Left_19
*328 PHY_EDGE_ROW_1_Right_1
*329 PHY_EDGE_ROW_2_Left_20
*330 PHY_EDGE_ROW_2_Right_2
*331 PHY_EDGE_ROW_3_Left_21
*332 PHY_EDGE_ROW_3_Right_3
*333 PHY_EDGE_ROW_4_Left_22
*334 PHY_EDGE_ROW_4_Right_4
*335 PHY_EDGE_ROW_5_Left_23
*336 PHY_EDGE_ROW_5_Right_5
*337 PHY_EDGE_ROW_6_Left_24
*338 PHY_EDGE_ROW_6_Right_6
*339 PHY_EDGE_ROW_7_Left_25
*340 PHY_EDGE_ROW_7_Right_7
*341 PHY_EDGE_ROW_8_Left_26
*342 PHY_EDGE_ROW_8_Right_8
*343 PHY_EDGE_ROW_9_Left_27
*344 PHY_EDGE_ROW_9_Right_9
*345 TAP_TAPCELL_ROW_0_36
*346 TAP_TAPCELL_ROW_0_37
*347 TAP_TAPCELL_ROW_0_38
*348 TAP_TAPCELL_ROW_10_52
*349 TAP_TAPCELL_ROW_10_53
*350 TAP_TAPCELL_ROW_11_54
*351 TAP_TAPCELL_ROW_12_55
*352 TAP_TAPCELL_ROW_12_56
*353 TAP_TAPCELL_ROW_13_57
*354 TAP_TAPCELL_ROW_14_58
*355 TAP_TAPCELL_ROW_14_59
*356 TAP_TAPCELL_ROW_15_60
*357 TAP_TAPCELL_ROW_16_61
*358 TAP_TAPCELL_ROW_16_62
*359 TAP_TAPCELL_ROW_17_63
*360 TAP_TAPCELL_ROW_17_64
*361 TAP_TAPCELL_ROW_17_65
*362 TAP_TAPCELL_ROW_1_39
*363 TAP_TAPCELL_ROW_2_40
*364 TAP_TAPCELL_ROW_2_41
*365 TAP_TAPCELL_ROW_3_42
*366 TAP_TAPCELL_ROW_4_43
*367 TAP_TAPCELL_ROW_4_44
*368 TAP_TAPCELL_ROW_5_45
*369 TAP_TAPCELL_ROW_6_46
*370 TAP_TAPCELL_ROW_6_47
*371 TAP_TAPCELL_ROW_7_48
*372 TAP_TAPCELL_ROW_8_49
*373 TAP_TAPCELL_ROW_8_50
*374 TAP_TAPCELL_ROW_9_51
*375 _079_
*376 _080_
*377 _081_
*378 _082_
*379 _083_
*380 _084_
*381 _085_
*382 _086_
*383 _087_
*384 _088_
*385 _089_
*386 _090_
*387 _091_
*388 _092_
*389 _093_
*390 _094_
*391 _095_
*392 _096_
*393 _097_
*394 _098_
*395 _099_
*396 _100_
*397 _101_
*398 _102_
*399 _103_
*400 _104_
*401 _105_
*402 _106_
*403 _107_
*404 _108_
*405 _109_
*406 _110_
*407 _111_
*408 _112_
*409 _113_
*410 _114_
*411 _115_
*412 _116_
*413 _117_
*414 _118_
*415 _119_
*416 _120_
*417 _121_
*418 _122_
*419 _123_
*420 _124_
*421 _125_
*422 _126_
*423 _127_
*424 _128_
*425 _129_
*426 _130_
*427 _131_
*428 _132_
*429 _133_
*430 _134_
*431 _135_
*432 _136_
*433 _137_
*434 _138_
*435 _139_
*436 _140_
*437 _141_
*438 _142_
*439 _143_
*440 _144_
*441 _145_
*442 _146_
*443 _147_
*444 _148_
*445 _149_
*446 _150_
*447 _151_
*448 _152_
*449 _153_
*450 _154_
*451 _155_
*452 _156_
*453 _157_
*454 _158_
*455 _159_
*456 _160_
*457 _161_
*458 _162_
*459 _163_
*460 _164_
*461 _165_
*462 _166_
*463 _167_
*464 _168_
*465 _169_
*466 _170_
*467 _171_
*468 _172_
*469 _173_
*470 _174_
*471 _175_
*472 _176_
*473 _177_
*474 _178_
*475 _179_
*476 _180_
*477 _181_
*478 _182_
*479 _183_
*480 clkbuf_0_clk
*481 clkbuf_1_0__f_clk
*482 clkbuf_1_1__f_clk
*483 clkload0
*484 fanout29
*485 fanout30
*486 fanout31
*487 fanout32
*488 fanout33
*489 hold1
*490 hold2
*491 hold3
*492 hold4
*493 hold5
*494 hold6
*495 hold7
*496 hold8
*497 hold9
*498 input1
*499 input10
*500 input11
*501 input12
*502 input13
*503 input14
*504 input15
*505 input16
*506 input17
*507 input18
*508 input19
*509 input2
*510 input3
*511 input4
*512 input5
*513 input6
*514 input7
*515 input8
*516 input9
*517 output20
*518 output21
*519 output22
*520 output23
*521 output24
*522 output25
*523 output26
*524 output27
*525 output28

*PORTS
a[0] I
a[1] I
a[2] I
a[3] I
a[4] I
a[5] I
a[6] I
a[7] I
b[0] I
b[1] I
b[2] I
b[3] I
b[4] I
b[5] I
b[6] I
b[7] I
cin I
clk I
cout O
enable I
reset I
sum[0] O
sum[1] O
sum[2] O
sum[3] O
sum[4] O
sum[5] O
sum[6] O
sum[7] O

*D_NET *3 0.000538123
*CONN
*P a[0] I
*I *498:A I *D sky130_fd_sc_hd__clkbuf_1
*CAP
1 a[0] 0.000241302
2 *498:A 0.000241302
3 *498:A *503:A 3.30292e-05
4 *498:A *506:A 2.24901e-05
*RES
1 a[0] *498:A 6.8343 
*END

*D_NET *4 0.000789397
*CONN
*P a[1] I
*I *509:A I *D sky130_fd_sc_hd__clkbuf_1
*CAP
1 a[1] 0.000394699
2 *509:A 0.000394699
3 *509:A sum[0] 0
4 *509:A *438:A_N 0
5 *509:A *510:A 0
*RES
1 a[1] *509:A 10.35 
*END

*D_NET *5 0.00109709
*CONN
*P a[2] I
*I *510:A I *D sky130_fd_sc_hd__clkbuf_1
*CAP
1 a[2] 0.000433622
2 *510:A 0.000433622
3 *510:A *421:A1 0.000198934
4 *510:A *438:A_N 3.09164e-05
5 *510:A *499:A 0
6 *509:A *510:A 0
*RES
1 a[2] *510:A 11.73 
*END

*D_NET *6 0.00102027
*CONN
*P a[3] I
*I *511:A I *D sky130_fd_sc_hd__clkbuf_1
*CAP
1 a[3] 0.000338764
2 *511:A 0.000338764
3 *511:A sum[2] 8.65828e-05
4 *511:A *389:B1 0.000108647
5 *511:A *441:A1 3.12569e-05
6 *511:A *501:A 0.000116252
*RES
1 a[3] *511:A 6.21637 
*END

*D_NET *7 0.00245277
*CONN
*P a[4] I
*I *512:A I *D sky130_fd_sc_hd__clkbuf_1
*CAP
1 a[4] 0.000755845
2 *512:A 0.000755845
3 *512:A sum[3] 0.000102922
4 *512:A sum[4] 0.000107143
5 *512:A sum[5] 6.35417e-05
6 *512:A *394:A 8.49205e-05
7 *512:A *402:A1 2.05056e-05
8 *512:A *402:A2 8.40213e-05
9 *512:A *427:A1 8.8266e-05
10 *512:A *522:A 0.000258126
11 *512:A *102:10 0.000131631
*RES
1 a[4] *512:A 16.6252 
*END

*D_NET *8 0.000883299
*CONN
*P a[5] I
*I *513:A I *D sky130_fd_sc_hd__clkbuf_1
*CAP
1 a[5] 0.000313111
2 *513:A 0.000313111
3 *513:A *503:A 0.000225669
4 *513:A *514:A 3.14094e-05
5 *513:A *136:10 0
6 *513:A *136:12 0
*RES
1 a[5] *513:A 9.19043 
*END

*D_NET *9 0.00062056
*CONN
*P a[6] I
*I *514:A I *D sky130_fd_sc_hd__clkbuf_1
*CAP
1 a[6] 0.000294576
2 *514:A 0.000294576
3 *514:A *504:A 0
4 *514:A *136:10 0
5 *513:A *514:A 3.14094e-05
*RES
1 a[6] *514:A 7.5993 
*END

*D_NET *10 0.0014176
*CONN
*P a[7] I
*I *515:A I *D sky130_fd_sc_hd__clkbuf_1
*CAP
1 a[7] 0.00064421
2 *515:A 0.00064421
3 *515:A sum[6] 0
4 *515:A *487:A 0.000112859
5 *515:A *140:10 1.63175e-05
*RES
1 a[7] *515:A 14.955 
*END

*D_NET *11 0.000891514
*CONN
*P b[0] I
*I *516:A I *D sky130_fd_sc_hd__clkbuf_1
*CAP
1 b[0] 0.000431995
2 *516:A 0.000431995
3 *516:A *435:A0 0
4 *516:A *435:A1 2.75229e-05
*RES
1 b[0] *516:A 11.04 
*END

*D_NET *12 0.00141463
*CONN
*P b[1] I
*I *499:A I *D sky130_fd_sc_hd__clkbuf_1
*CAP
1 b[1] 0.000483812
2 *499:A 0.000483812
3 *499:A *421:A1 0.000235573
4 *499:A *437:A0 2.60898e-05
5 *499:A *437:A1 2.30292e-05
6 *499:A *437:S 0.000162311
7 *510:A *499:A 0
*RES
1 b[1] *499:A 13.11 
*END

*D_NET *13 0.00119976
*CONN
*P b[2] I
*I *500:A I *D sky130_fd_sc_hd__clkbuf_1
*CAP
1 b[2] 0.000509872
2 *500:A 0.000509872
3 *500:A sum[2] 6.35417e-05
4 *500:A *389:A2 1.22505e-05
5 *500:A *437:S 0
6 *500:A *439:A0 7.75325e-05
7 *500:A *141:42 0
8 *500:A *162:21 2.66935e-05
*RES
1 b[2] *500:A 11.5552 
*END

*D_NET *14 0.00119761
*CONN
*P b[3] I
*I *501:A I *D sky130_fd_sc_hd__clkbuf_1
*CAP
1 b[3] 0.000380682
2 *501:A 0.000380682
3 *501:A sum[3] 6.59989e-05
4 *501:A sum[5] 0
5 *501:A *389:B1 0
6 *501:A *425:A1 0
7 *501:A *441:A1 6.95753e-05
8 *501:A *141:42 0.000184417
9 *511:A *501:A 0.000116252
*RES
1 b[3] *501:A 8.59157 
*END

*D_NET *15 0.000590694
*CONN
*P b[4] I
*I *502:A I *D sky130_fd_sc_hd__clkbuf_1
*CAP
1 b[4] 0.000217226
2 *502:A 0.000217226
3 *502:A sum[4] 6.59989e-05
4 *502:A *443:A1 2.67022e-05
5 *502:A *507:A 6.35417e-05
6 *502:A *141:8 0
*RES
1 b[4] *502:A 6.71023 
*END

*D_NET *16 0.000908407
*CONN
*P b[5] I
*I *503:A I *D sky130_fd_sc_hd__clkbuf_1
*CAP
1 b[5] 0.000316162
2 *503:A 0.000316162
3 *503:A *429:A1 1.7386e-05
4 *498:A *503:A 3.30292e-05
5 *513:A *503:A 0.000225669
*RES
1 b[5] *503:A 8.2293 
*END

*D_NET *17 0.000567292
*CONN
*P b[6] I
*I *504:A I *D sky130_fd_sc_hd__clkbuf_1
*CAP
1 b[6] 0.000272887
2 *504:A 0.000272887
3 *504:A *508:A 2.15176e-05
4 *514:A *504:A 0
*RES
1 b[6] *504:A 7.0893 
*END

*D_NET *18 0.00200861
*CONN
*P b[7] I
*I *505:A I *D sky130_fd_sc_hd__clkbuf_1
*CAP
1 b[7] 0.000574809
2 *505:A 0.000574809
3 *505:A *449:A1 0.0001138
4 *505:A *487:A 0.000505378
5 *505:A *494:A 0.000239813
*RES
1 b[7] *505:A 16.575 
*END

*D_NET *19 0.000514594
*CONN
*P cin I
*I *506:A I *D sky130_fd_sc_hd__clkbuf_1
*CAP
1 cin 0.000213818
2 *506:A 0.000213818
3 *506:A *452:A_N 6.44676e-05
4 *498:A *506:A 2.24901e-05
*RES
1 cin *506:A 5.35677 
*END

*D_NET *20 0.00580488
*CONN
*P clk I
*I *480:A I *D sky130_fd_sc_hd__clkbuf_16
*CAP
1 clk 0.00274562
2 *480:A 0.00274562
3 *480:A *414:A_N 0
4 *480:A *416:B 0
5 *480:A *466:CLK 0
6 *480:A *466:D 0
7 *480:A *477:D 8.66107e-06
8 *480:A *481:A 0
9 *480:A *482:A 0
10 *480:A *508:A 8.53361e-05
11 *480:A *139:45 0.000219639
*RES
1 clk *480:A 20.2264 
*END

*D_NET *21 0.00112002
*CONN
*P cout O
*I *517:X O *D sky130_fd_sc_hd__buf_2
*CAP
1 cout 0.000492461
2 *517:X 0.000492461
3 cout sum[7] 0
4 cout *487:A 0.00012657
5 cout *138:10 8.53113e-06
*RES
1 *517:X cout 12.06 
*END

*D_NET *22 0.000522688
*CONN
*P enable I
*I *507:A I *D sky130_fd_sc_hd__buf_1
*CAP
1 enable 0.000229573
2 *507:A 0.000229573
3 *507:A sum[4] 0
4 *507:A *141:8 0
5 *502:A *507:A 6.35417e-05
*RES
1 enable *507:A 6.0635 
*END

*D_NET *23 0.000835453
*CONN
*P reset I
*I *508:A I *D sky130_fd_sc_hd__clkbuf_1
*CAP
1 reset 0.000308853
2 *508:A 0.000308853
3 *508:A *486:A 5.02284e-05
4 *508:A *114:60 0
5 *508:A *114:62 0
6 *508:A *139:8 6.06649e-05
7 *480:A *508:A 8.53361e-05
8 *504:A *508:A 2.15176e-05
*RES
1 reset *508:A 7.90677 
*END

*D_NET *24 0.000868071
*CONN
*P sum[0] O
*I *518:X O *D sky130_fd_sc_hd__buf_2
*CAP
1 sum[0] 0.000434035
2 *518:X 0.000434035
3 *509:A sum[0] 0
*RES
1 *518:X sum[0] 10.74 
*END

*D_NET *25 0.000821981
*CONN
*P sum[1] O
*I *519:X O *D sky130_fd_sc_hd__buf_2
*CAP
1 sum[1] 0.000393707
2 *519:X 0.000393707
3 sum[1] *437:S 3.45679e-05
*RES
1 *519:X sum[1] 10.185 
*END

*D_NET *26 0.000638928
*CONN
*P sum[2] O
*I *520:X O *D sky130_fd_sc_hd__buf_2
*CAP
1 sum[2] 0.000182826
2 *520:X 0.000182826
3 sum[2] *389:A2 6.06649e-05
4 sum[2] *141:42 6.24871e-05
5 *500:A sum[2] 6.35417e-05
6 *511:A sum[2] 8.65828e-05
*RES
1 *520:X sum[2] 5.41503 
*END

*D_NET *27 0.000938768
*CONN
*P sum[3] O
*I *521:X O *D sky130_fd_sc_hd__buf_2
*CAP
1 sum[3] 0.000318356
2 *521:X 0.000318356
3 sum[3] sum[5] 6.35417e-05
4 sum[3] *523:A 6.95945e-05
5 *501:A sum[3] 6.59989e-05
6 *512:A sum[3] 0.000102922
*RES
1 *521:X sum[3] 8.52523 
*END

*D_NET *28 0.00143307
*CONN
*P sum[4] O
*I *522:X O *D sky130_fd_sc_hd__buf_2
*CAP
1 sum[4] 0.000448171
2 *522:X 0.000448171
3 sum[4] sum[5] 1.88904e-05
4 sum[4] *399:A 0.00011852
5 sum[4] *399:B 0
6 sum[4] *402:B1_N 0
7 sum[4] *522:A 0.000100875
8 sum[4] *523:A 2.88322e-05
9 sum[4] *141:14 9.64744e-05
10 *502:A sum[4] 6.59989e-05
11 *507:A sum[4] 0
12 *512:A sum[4] 0.000107143
*RES
1 *522:X sum[4] 10.5133 
*END

*D_NET *29 0.0012278
*CONN
*P sum[5] O
*I *523:X O *D sky130_fd_sc_hd__buf_2
*CAP
1 sum[5] 0.000318098
2 *523:X 0.000318098
3 sum[5] *402:A1 0
4 sum[5] *521:A 7.63204e-05
5 sum[5] *523:A 0.00036931
6 sum[3] sum[5] 6.35417e-05
7 sum[4] sum[5] 1.88904e-05
8 *501:A sum[5] 0
9 *512:A sum[5] 6.35417e-05
*RES
1 *523:X sum[5] 8.98503 
*END

*D_NET *30 0.0010605
*CONN
*P sum[6] O
*I *524:X O *D sky130_fd_sc_hd__buf_2
*CAP
1 sum[6] 0.000529768
2 *524:X 0.000529768
3 sum[6] *140:10 9.60582e-07
4 *515:A sum[6] 0
*RES
1 *524:X sum[6] 12.06 
*END

*D_NET *31 0.00111593
*CONN
*P sum[7] O
*I *525:X O *D sky130_fd_sc_hd__buf_2
*CAP
1 sum[7] 0.000494679
2 *525:X 0.000494679
3 sum[7] *487:A 0.00012657
4 cout sum[7] 0
*RES
1 *525:X sum[7] 12.06 
*END

*D_NET *32 0.000414843
*CONN
*I *454:D I *D sky130_fd_sc_hd__dfxtp_1
*I *379:Y O *D sky130_fd_sc_hd__nor3_1
*CAP
1 *454:D 7.72161e-05
2 *379:Y 7.72161e-05
3 *454:D *435:S 8.95468e-05
4 *454:D *454:CLK 9.53428e-06
5 *454:D *113:22 9.33958e-05
6 *454:D *113:26 5.30673e-05
7 *454:D *140:97 1.48666e-05
*RES
1 *379:Y *454:D 5.78 
*END

*D_NET *33 0.000389409
*CONN
*I *455:D I *D sky130_fd_sc_hd__dfxtp_1
*I *385:X O *D sky130_fd_sc_hd__and3b_1
*CAP
1 *455:D 0.000102503
2 *385:X 0.000102503
3 *455:D *383:A 7.23602e-05
4 *455:D *383:B 3.37735e-05
5 *455:D *421:A1 0
6 *455:D *438:A_N 0
7 *455:D *113:95 7.82691e-05
8 *455:D *138:24 0
*RES
1 *385:X *455:D 9.3 
*END

*D_NET *34 0.00156324
*CONN
*I *496:A I *D sky130_fd_sc_hd__dlygate4sd3_1
*I *390:X O *D sky130_fd_sc_hd__o21a_1
*CAP
1 *496:A 0.000568803
2 *390:X 0.000568803
3 *496:A *388:B 2.49909e-05
4 *496:A *389:B1 0.000257471
5 *496:A *390:A1 2.30292e-05
6 *496:A *390:A2 8.65905e-05
7 *496:A *390:B1 3.00381e-05
8 *496:A *456:D 3.51254e-06
9 *496:A *141:42 0
*RES
1 *390:X *496:A 15.24 
*END

*D_NET *35 0.000279562
*CONN
*I *457:D I *D sky130_fd_sc_hd__dfxtp_1
*I *396:X O *D sky130_fd_sc_hd__and3b_1
*CAP
1 *457:D 0.0001148
2 *396:X 0.0001148
3 *457:D *457:CLK 4.99619e-05
*RES
1 *396:X *457:D 4.92875 
*END

*D_NET *36 0.000820723
*CONN
*I *492:A I *D sky130_fd_sc_hd__dlygate4sd3_1
*I *401:X O *D sky130_fd_sc_hd__o21a_1
*CAP
1 *492:A 0.000244561
2 *401:X 0.000244561
3 *492:A *400:A1 3.1562e-06
4 *492:A *401:B1 0.00012657
5 *492:A *402:A1 4.40812e-05
6 *492:A *459:CLK 0.000116158
7 *492:A *114:130 4.16353e-05
*RES
1 *401:X *492:A 11.1 
*END

*D_NET *37 0.00352931
*CONN
*I *459:D I *D sky130_fd_sc_hd__dfxtp_1
*I *407:X O *D sky130_fd_sc_hd__and3b_1
*CAP
1 *459:D 0.00143566
2 *407:X 0.00143566
3 *459:D *397:A_N 2.32597e-05
4 *459:D *398:A2 0.000249341
5 *459:D *398:B1_N 4.92935e-05
6 *459:D *405:B 1.95256e-05
7 *459:D *407:B 1.80872e-05
8 *459:D *428:B 7.99757e-05
9 *459:D *466:D 6.60261e-06
10 *459:D *97:33 3.73239e-05
11 *459:D *99:12 0.000174581
*RES
1 *407:X *459:D 21.2488 
*END

*D_NET *38 0.000648073
*CONN
*I *490:A I *D sky130_fd_sc_hd__dlygate4sd3_1
*I *412:X O *D sky130_fd_sc_hd__o21a_1
*CAP
1 *490:A 0.000242192
2 *412:X 0.000242192
3 *490:A *411:A1 8.65961e-05
4 *490:A *434:B 0
5 *490:A *460:D 0
6 *490:A *114:50 7.70938e-05
7 *490:A *140:22 0
*RES
1 *412:X *490:A 11.415 
*END

*D_NET *39 0.000489966
*CONN
*I *461:D I *D sky130_fd_sc_hd__dfxtp_1
*I *418:X O *D sky130_fd_sc_hd__and3b_1
*CAP
1 *461:D 0.000156157
2 *418:X 0.000156157
3 *461:D *418:B 8.53113e-06
4 *461:D *114:122 2.75229e-05
5 *461:D *138:10 0
6 *461:D *172:21 0.000141599
*RES
1 *418:X *461:D 10.005 
*END

*D_NET *40 0.000494099
*CONN
*I *462:D I *D sky130_fd_sc_hd__dfxtp_1
*I *420:X O *D sky130_fd_sc_hd__and2b_1
*CAP
1 *462:D 0.000121782
2 *420:X 0.000121782
3 *462:D *419:A1 0.000163012
4 *462:D *451:A1 8.75227e-05
5 *462:D *140:40 0
*RES
1 *420:X *462:D 9.91875 
*END

*D_NET *41 0.000371922
*CONN
*I *463:D I *D sky130_fd_sc_hd__dfxtp_1
*I *422:X O *D sky130_fd_sc_hd__and2b_1
*CAP
1 *463:D 0.000185961
2 *422:X 0.000185961
*RES
1 *422:X *463:D 10.0087 
*END

*D_NET *42 0.0008592
*CONN
*I *464:D I *D sky130_fd_sc_hd__dfxtp_1
*I *424:X O *D sky130_fd_sc_hd__and2b_1
*CAP
1 *464:D 0.000251046
2 *424:X 0.000251046
3 *464:D *422:B 1.61831e-05
4 *464:D *424:B 0
5 *464:D *85:6 0.000340925
*RES
1 *424:X *464:D 11.7638 
*END

*D_NET *43 0.000416479
*CONN
*I *465:D I *D sky130_fd_sc_hd__dfxtp_1
*I *426:X O *D sky130_fd_sc_hd__and2b_1
*CAP
1 *465:D 0.00015321
2 *426:X 0.00015321
3 *465:D *392:B 0
4 *465:D *465:CLK 4.82319e-06
5 *465:D *475:CLK 3.05238e-05
6 *465:D *113:128 2.66935e-05
7 *465:D *113:147 4.80182e-05
*RES
1 *426:X *465:D 10.0087 
*END

*D_NET *44 0.000395777
*CONN
*I *466:D I *D sky130_fd_sc_hd__dfxtp_1
*I *428:X O *D sky130_fd_sc_hd__and2b_1
*CAP
1 *466:D 0.000192368
2 *428:X 0.000192368
3 *466:D *428:A_N 0
4 *466:D *466:CLK 4.43871e-06
5 *459:D *466:D 6.60261e-06
6 *480:A *466:D 0
*RES
1 *428:X *466:D 10.005 
*END

*D_NET *45 0.000260321
*CONN
*I *467:D I *D sky130_fd_sc_hd__dfxtp_1
*I *430:X O *D sky130_fd_sc_hd__and2b_1
*CAP
1 *467:D 0.000119711
2 *430:X 0.000119711
3 *467:D *430:B 1.7386e-05
4 *467:D *431:A1 3.51254e-06
5 *467:D *136:10 0
6 *467:D *140:28 0
*RES
1 *430:X *467:D 8.91375 
*END

*D_NET *46 0.000274922
*CONN
*I *468:D I *D sky130_fd_sc_hd__dfxtp_1
*I *432:X O *D sky130_fd_sc_hd__and2b_1
*CAP
1 *468:D 0.000102965
2 *432:X 0.000102965
3 *468:D *431:A0 0
4 *468:D *467:CLK 3.89528e-05
5 *468:D *136:108 3.00381e-05
6 *468:D *140:26 0
*RES
1 *432:X *468:D 8.91375 
*END

*D_NET *47 0.000636648
*CONN
*I *469:D I *D sky130_fd_sc_hd__dfxtp_1
*I *434:X O *D sky130_fd_sc_hd__and2b_1
*CAP
1 *469:D 0.000175906
2 *434:X 0.000175906
3 *469:D *433:A0 0
4 *469:D *58:6 2.68526e-05
5 *469:D *114:42 0.000123503
6 *469:D *140:22 0.00013448
*RES
1 *434:X *469:D 10.4587 
*END

*D_NET *48 0.000431325
*CONN
*I *470:D I *D sky130_fd_sc_hd__dfxtp_1
*I *436:X O *D sky130_fd_sc_hd__and2b_1
*CAP
1 *470:D 0.000151342
2 *436:X 0.000151342
3 *470:D *436:A_N 0
4 *470:D *113:26 0.000128642
*RES
1 *436:X *470:D 10.0087 
*END

*D_NET *49 0.000348243
*CONN
*I *471:D I *D sky130_fd_sc_hd__dfxtp_1
*I *438:X O *D sky130_fd_sc_hd__and2b_1
*CAP
1 *471:D 0.000149877
2 *438:X 0.000149877
3 *471:D *383:B 4.82319e-06
4 *471:D *437:A0 0
5 *471:D *438:A_N 0
6 *471:D *113:82 1.43717e-05
7 *471:D *140:97 2.92931e-05
*RES
1 *438:X *471:D 9.52875 
*END

*D_NET *50 0.000325313
*CONN
*I *472:D I *D sky130_fd_sc_hd__dfxtp_1
*I *440:X O *D sky130_fd_sc_hd__and2b_1
*CAP
1 *472:D 0.000162657
2 *440:X 0.000162657
3 *472:D *113:95 0
4 *472:D *141:42 0
*RES
1 *440:X *472:D 9.49875 
*END

*D_NET *51 0.000589181
*CONN
*I *473:D I *D sky130_fd_sc_hd__dfxtp_1
*I *442:X O *D sky130_fd_sc_hd__and2b_1
*CAP
1 *473:D 0.000127152
2 *442:X 0.000127152
3 *473:D *394:B 5.92269e-05
4 *473:D *425:A1 7.45772e-05
5 *473:D *457:CLK 3.25831e-05
6 *473:D *97:10 0.000167447
7 *473:D *164:8 1.04285e-06
*RES
1 *442:X *473:D 10.005 
*END

*D_NET *52 0.000300605
*CONN
*I *474:D I *D sky130_fd_sc_hd__dfxtp_1
*I *444:X O *D sky130_fd_sc_hd__and2b_1
*CAP
1 *474:D 0.000101749
2 *444:X 0.000101749
3 *474:D *114:130 9.71067e-05
*RES
1 *444:X *474:D 9.00375 
*END

*D_NET *53 0.000674948
*CONN
*I *475:D I *D sky130_fd_sc_hd__dfxtp_1
*I *446:X O *D sky130_fd_sc_hd__and2b_1
*CAP
1 *475:D 0.000156491
2 *446:X 0.000156491
3 *475:D *445:A0 8.96017e-05
4 *475:D *446:B 0.000158949
5 *475:D *475:CLK 0.000113414
6 *475:D *140:40 0
*RES
1 *446:X *475:D 10.7288 
*END

*D_NET *54 0.000329505
*CONN
*I *476:D I *D sky130_fd_sc_hd__dfxtp_1
*I *448:X O *D sky130_fd_sc_hd__and2b_1
*CAP
1 *476:D 0.000124324
2 *448:X 0.000124324
3 *476:D *114:60 1.43521e-05
4 *476:D *114:62 4.91189e-05
5 *476:D *139:28 1.7386e-05
*RES
1 *448:X *476:D 9.42375 
*END

*D_NET *55 0.00125228
*CONN
*I *477:D I *D sky130_fd_sc_hd__dfxtp_1
*I *450:X O *D sky130_fd_sc_hd__and2b_1
*CAP
1 *477:D 0.000422937
2 *450:X 0.000422937
3 *477:D *416:B 5.97649e-05
4 *477:D *449:A1 5.83373e-05
5 *477:D *450:B 7.23602e-05
6 *477:D *477:CLK 1.43717e-05
7 *477:D *479:CLK 0
8 *477:D *479:D 0
9 *477:D *485:A 2.75229e-05
10 *477:D *114:10 0
11 *477:D *114:34 0
12 *477:D *139:45 0.000165386
13 *480:A *477:D 8.66107e-06
*RES
1 *450:X *477:D 15.8438 
*END

*D_NET *56 0.000356549
*CONN
*I *478:D I *D sky130_fd_sc_hd__dfxtp_1
*I *452:X O *D sky130_fd_sc_hd__and2b_1
*CAP
1 *478:D 0.000122396
2 *452:X 0.000122396
3 *478:D *452:B 4.82863e-05
4 *478:D *462:CLK 4.91189e-05
5 *478:D *113:37 1.43521e-05
6 *478:D *136:40 0
*RES
1 *452:X *478:D 9.42375 
*END

*D_NET *57 0.00134816
*CONN
*I *494:A I *D sky130_fd_sc_hd__dlygate4sd3_1
*I *453:Y O *D sky130_fd_sc_hd__a21oi_1
*CAP
1 *494:A 0.000283068
2 *453:Y 0.000283068
3 *494:A *418:C 3.05373e-05
4 *494:A *449:A1 0.000239813
5 *494:A *453:B1 5.4003e-05
6 *494:A *461:CLK 1.56428e-05
7 *494:A *479:CLK 0
8 *494:A *479:D 0.000137571
9 *494:A *62:10 5.65627e-05
10 *494:A *114:34 0
11 *494:A *138:10 0
12 *494:A *172:21 8.08153e-06
13 *505:A *494:A 0.000239813
*RES
1 *453:Y *494:A 14.265 
*END

*D_NET *58 0.00163372
*CONN
*I *414:A_N I *D sky130_fd_sc_hd__nand2b_1
*I *415:B I *D sky130_fd_sc_hd__xnor2_1
*I *413:Y O *D sky130_fd_sc_hd__a21boi_1
*CAP
1 *414:A_N 0.000175289
2 *415:B 0
3 *413:Y 0.00017105
4 *58:6 0.00034634
5 *414:A_N *415:A 0.000243421
6 *414:A_N *433:A0 7.5037e-05
7 *414:A_N *139:39 4.36984e-05
8 *58:6 *139:28 6.70275e-05
9 *58:6 *139:39 0.000251442
10 *58:6 *140:22 0.000233565
11 *469:D *58:6 2.68526e-05
12 *480:A *414:A_N 0
*RES
1 *413:Y *58:6 6.535 
2 *58:6 *415:B 1.6 
3 *58:6 *414:A_N 9.575 
*END

*D_NET *59 0.00136336
*CONN
*I *453:A1 I *D sky130_fd_sc_hd__a21oi_1
*I *414:Y O *D sky130_fd_sc_hd__nand2b_1
*CAP
1 *453:A1 0.000382429
2 *414:Y 0.000382429
3 *453:A1 *461:CLK 0.000198945
4 *453:A1 *114:38 0.000311288
5 *453:A1 *114:42 8.8266e-05
*RES
1 *414:Y *453:A1 8.48 
*END

*D_NET *60 0.00340791
*CONN
*I *417:B I *D sky130_fd_sc_hd__nand2_1
*I *416:B I *D sky130_fd_sc_hd__or2_1
*I *415:Y O *D sky130_fd_sc_hd__xnor2_1
*CAP
1 *417:B 0.000705545
2 *416:B 0.000143361
3 *415:Y 0.000323309
4 *60:6 0.00117221
5 *416:B *466:CLK 0.000132713
6 *416:B *114:10 4.5783e-05
7 *417:B *418:C 0.000122331
8 *417:B *525:A 0
9 *417:B *114:122 0.000147095
10 *417:B *114:130 0
11 *417:B *138:10 0.00012881
12 *417:B *138:12 3.983e-05
13 *417:B *139:65 0.000113255
14 *60:6 *139:39 0.00016514
15 *60:6 *139:65 0.000108761
16 *477:D *416:B 5.97649e-05
17 *480:A *416:B 0
*RES
1 *415:Y *60:6 5.845 
2 *60:6 *416:B 9.275 
3 *60:6 *417:B 16.61 
*END

*D_NET *61 0.00114787
*CONN
*I *418:B I *D sky130_fd_sc_hd__and3b_1
*I *416:X O *D sky130_fd_sc_hd__or2_1
*CAP
1 *418:B 0.000404027
2 *416:X 0.000404027
3 *418:B *416:A 6.77062e-05
4 *418:B *428:A_N 0.000163012
5 *418:B *138:10 0
6 *418:B *138:12 0
7 *418:B *172:21 0.000100571
8 *461:D *418:B 8.53113e-06
*RES
1 *416:X *418:B 13.905 
*END

*D_NET *62 0.00197938
*CONN
*I *453:A2 I *D sky130_fd_sc_hd__a21oi_1
*I *418:C I *D sky130_fd_sc_hd__and3b_1
*I *417:Y O *D sky130_fd_sc_hd__nand2_1
*CAP
1 *453:A2 0
2 *418:C 0.000104882
3 *417:Y 0.000325
4 *62:10 0.000429882
5 *418:C *453:B1 5.93674e-05
6 *418:C *114:122 6.71882e-05
7 *418:C *139:71 1.22676e-05
8 *418:C *172:21 0.000231571
9 *62:10 *449:A0 4.66108e-05
10 *62:10 *493:A 0.000377026
11 *62:10 *172:21 0.000116158
12 *417:B *418:C 0.000122331
13 *494:A *418:C 3.05373e-05
14 *494:A *62:10 5.65627e-05
*RES
1 *417:Y *62:10 8.88 
2 *62:10 *418:C 7.395 
3 *62:10 *453:A2 3.6 
*END

*D_NET *63 0.000534853
*CONN
*I *420:B I *D sky130_fd_sc_hd__and2b_1
*I *419:X O *D sky130_fd_sc_hd__mux2_1
*CAP
1 *420:B 0.000120567
2 *419:X 0.000120567
3 *420:B *419:A1 0.000247553
4 *420:B *452:A_N 0
5 *420:B *462:CLK 4.61658e-05
6 *420:B *140:40 0
*RES
1 *419:X *420:B 10.365 
*END

*D_NET *64 0.00216467
*CONN
*I *422:B I *D sky130_fd_sc_hd__and2b_1
*I *421:X O *D sky130_fd_sc_hd__mux2_1
*CAP
1 *422:B 0.000476466
2 *421:X 0.000476466
3 *422:B *381:A_N 1.91597e-05
4 *422:B *381:B 7.25921e-06
5 *422:B *421:S 8.8266e-05
6 *422:B *423:A0 1.46744e-05
7 *422:B *423:A1 0.000236355
8 *422:B *464:CLK 2.14129e-05
9 *422:B *84:10 0.000159525
10 *422:B *85:6 0.000119631
11 *422:B *88:10 0.000387896
12 *422:B *113:18 9.30787e-05
13 *422:B *140:97 4.82919e-05
14 *464:D *422:B 1.61831e-05
*RES
1 *421:X *422:B 18.105 
*END

*D_NET *65 0.00170212
*CONN
*I *424:B I *D sky130_fd_sc_hd__and2b_1
*I *423:X O *D sky130_fd_sc_hd__mux2_1
*CAP
1 *424:B 0.00055143
2 *423:X 0.00055143
3 *424:B *421:A0 8.49205e-05
4 *424:B *424:A_N 0.00039046
5 *424:B *464:CLK 3.05373e-05
6 *424:B *113:14 0
7 *424:B *113:18 9.33406e-05
8 *424:B *113:128 0
9 *424:B *140:97 0
10 *464:D *424:B 0
*RES
1 *423:X *424:B 16.755 
*END

*D_NET *66 0.00088911
*CONN
*I *426:B I *D sky130_fd_sc_hd__and2b_1
*I *425:X O *D sky130_fd_sc_hd__mux2_1
*CAP
1 *426:B 0.000248195
2 *425:X 0.000248195
3 *426:B *393:A 0.000142121
4 *426:B *138:20 9.54469e-05
5 *426:B *138:65 0.000145648
6 *426:B *163:19 9.50342e-06
*RES
1 *425:X *426:B 12.225 
*END

*D_NET *67 0.00101133
*CONN
*I *428:B I *D sky130_fd_sc_hd__and2b_1
*I *427:X O *D sky130_fd_sc_hd__mux2_1
*CAP
1 *428:B 0.000282025
2 *427:X 0.000282025
3 *428:B *397:A_N 0.000122331
4 *428:B *397:B 0.000100139
5 *428:B *398:B1_N 0.000122325
6 *428:B *427:A1 0
7 *428:B *165:12 2.25075e-05
8 *459:D *428:B 7.99757e-05
*RES
1 *427:X *428:B 12.57 
*END

*D_NET *68 0.000116585
*CONN
*I *430:B I *D sky130_fd_sc_hd__and2b_1
*I *429:X O *D sky130_fd_sc_hd__mux2_1
*CAP
1 *430:B 4.95993e-05
2 *429:X 4.95993e-05
3 *467:D *430:B 1.7386e-05
*RES
1 *429:X *430:B 3.995 
*END

*D_NET *69 0.000135094
*CONN
*I *432:B I *D sky130_fd_sc_hd__and2b_1
*I *431:X O *D sky130_fd_sc_hd__mux2_1
*CAP
1 *432:B 4.10134e-05
2 *431:X 4.10134e-05
3 *432:B *136:108 5.30673e-05
*RES
1 *431:X *432:B 3.995 
*END

*D_NET *70 0.00104798
*CONN
*I *434:B I *D sky130_fd_sc_hd__and2b_1
*I *433:X O *D sky130_fd_sc_hd__mux2_1
*CAP
1 *434:B 0.000329471
2 *433:X 0.000329471
3 *434:B *411:A2 0
4 *434:B *433:S 0.000112615
5 *434:B *114:50 0
6 *434:B *140:22 0.000276421
7 *490:A *434:B 0
*RES
1 *433:X *434:B 12.54 
*END

*D_NET *71 0.000382293
*CONN
*I *436:B I *D sky130_fd_sc_hd__and2b_1
*I *435:X O *D sky130_fd_sc_hd__mux2_1
*CAP
1 *436:B 8.95574e-05
2 *435:X 8.95574e-05
3 *436:B *436:A_N 0.000203178
*RES
1 *435:X *436:B 5.03 
*END

*D_NET *72 0.000156604
*CONN
*I *438:B I *D sky130_fd_sc_hd__and2b_1
*I *437:X O *D sky130_fd_sc_hd__mux2_1
*CAP
1 *438:B 3.96991e-05
2 *437:X 3.96991e-05
3 *438:B *421:A1 7.72056e-05
*RES
1 *437:X *438:B 3.995 
*END

*D_NET *73 0.000114528
*CONN
*I *440:B I *D sky130_fd_sc_hd__and2b_1
*I *439:X O *D sky130_fd_sc_hd__mux2_1
*CAP
1 *440:B 5.72638e-05
2 *439:X 5.72638e-05
*RES
1 *439:X *440:B 3.995 
*END

*D_NET *74 0.00042094
*CONN
*I *442:B I *D sky130_fd_sc_hd__and2b_1
*I *441:X O *D sky130_fd_sc_hd__mux2_1
*CAP
1 *442:B 0.000113476