*SPEF "ieee 1481-1999"
*DESIGN "carry_select_wrapper"
*DATE "20:14:58 Wednesday November 05, 2025"
*VENDOR "The OpenROAD Project"
*PROGRAM "OpenROAD"
*VERSION "edf00dff99f6c40d67a30c0e22a8191c5d2ed9d6"
*DESIGN_FLOW "NAME_SCOPE LOCAL" "PIN_CAP NONE"
*DIVIDER /
*DELIMITER :
*BUS_DELIMITER []
*T_UNIT 1 NS
*C_UNIT 1 PF
*R_UNIT 1 OHM
*L_UNIT 1 HENRY

*NAME_MAP
*3 a[0]
*4 a[1]
*5 a[2]
*6 a[3]
*7 a[4]
*8 a[5]
*9 a[6]
*10 a[7]
*11 b[0]
*12 b[1]
*13 b[2]
*14 b[3]
*15 b[4]
*16 b[5]
*17 b[6]
*18 b[7]
*19 cin
*20 clk
*21 cout
*22 reset
*23 sum[0]
*24 sum[1]
*25 sum[2]
*26 sum[3]
*27 sum[4]
*28 sum[5]
*29 sum[6]
*30 sum[7]
*31 _000_
*32 _001_
*33 _002_
*34 _003_
*35 _004_
*36 _005_
*37 _006_
*38 _007_
*39 _008_
*40 _009_
*41 _010_
*42 _011_
*43 _012_
*44 _013_
*45 _014_
*46 _015_
*47 _016_
*48 _017_
*49 _018_
*50 _019_
*51 _020_
*52 _021_
*53 _022_
*54 _023_
*55 _024_
*56 _025_
*57 _026_
*58 _027_
*59 _028_
*60 _029_
*61 _030_
*62 _031_
*63 _032_
*64 _033_
*65 _034_
*66 _035_
*67 _036_
*68 _037_
*69 _038_
*70 _039_
*71 _040_
*72 _041_
*73 _042_
*74 _043_
*75 _044_
*76 _045_
*77 _046_
*78 _047_
*79 _048_
*80 _049_
*81 _050_
*82 _051_
*83 _052_
*84 _053_
*85 _054_
*86 _055_
*87 _056_
*88 _057_
*89 _058_
*90 _059_
*91 _060_
*92 _061_
*93 _062_
*94 _063_
*95 _064_
*96 _065_
*97 _066_
*98 _067_
*99 cin_r
*100 clknet_0_clk
*101 clknet_1_0__leaf_clk
*102 clknet_1_1__leaf_clk
*103 cout_c
*104 net1
*105 net10
*106 net11
*107 net12
*108 net13
*109 net14
*110 net15
*111 net16
*112 net17
*113 net18
*114 net19
*115 net2
*116 net20
*117 net21
*118 net22
*119 net23
*120 net24
*121 net25
*122 net26
*123 net27
*124 net28
*125 net29
*126 net3
*127 net30
*128 net31
*129 net32
*130 net33
*131 net34
*132 net35
*133 net4
*134 net5
*135 net6
*136 net7
*137 net8
*138 net9
*139 sum_c\[0\]
*140 sum_c\[1\]
*141 sum_c\[2\]
*142 sum_c\[3\]
*143 sum_c\[4\]
*144 sum_c\[5\]
*145 sum_c\[6\]
*146 sum_c\[7\]
*147 u_cs\.hi_block_c0\.fa0\.a
*148 u_cs\.hi_block_c0\.fa0\.b
*149 u_cs\.hi_block_c0\.fa1\.a
*150 u_cs\.hi_block_c0\.fa1\.b
*151 u_cs\.hi_block_c0\.fa2\.a
*152 u_cs\.hi_block_c0\.fa2\.b
*153 u_cs\.hi_block_c0\.fa3\.a
*154 u_cs\.hi_block_c0\.fa3\.b
*155 u_cs\.lo_block\.fa0\.a
*156 u_cs\.lo_block\.fa0\.b
*157 u_cs\.lo_block\.fa1\.a
*158 u_cs\.lo_block\.fa1\.b
*159 u_cs\.lo_block\.fa2\.a
*160 u_cs\.lo_block\.fa2\.b
*161 u_cs\.lo_block\.fa3\.a
*162 u_cs\.lo_block\.fa3\.b
*163 FILLER_0_15
*164 FILLER_0_23
*165 FILLER_0_3
*166 FILLER_0_52
*167 FILLER_0_57
*168 FILLER_0_69
*169 FILLER_0_80
*170 FILLER_10_26
*171 FILLER_10_37
*172 FILLER_10_49
*173 FILLER_10_61
*174 FILLER_10_90
*175 FILLER_11_100
*176 FILLER_11_21
*177 FILLER_11_29
*178 FILLER_11_38
*179 FILLER_11_50
*180 FILLER_11_57
*181 FILLER_11_69
*182 FILLER_11_77
*183 FILLER_11_87
*184 FILLER_11_9
*185 FILLER_11_93
*186 FILLER_12_11
*187 FILLER_12_15
*188 FILLER_12_27
*189 FILLER_12_29
*190 FILLER_12_3
*191 FILLER_12_41
*192 FILLER_12_53
*193 FILLER_12_65
*194 FILLER_12_73
*195 FILLER_12_82
*196 FILLER_13_103
*197 FILLER_13_23
*198 FILLER_13_35
*199 FILLER_13_47
*200 FILLER_13_55
*201 FILLER_13_57
*202 FILLER_13_69
*203 FILLER_13_73
*204 FILLER_13_77
*205 FILLER_13_89
*206 FILLER_13_93
*207 FILLER_14_104
*208 FILLER_14_41
*209 FILLER_14_53
*210 FILLER_14_61
*211 FILLER_14_65
*212 FILLER_14_96
*213 FILLER_15_15
*214 FILLER_15_49
*215 FILLER_15_54
*216 FILLER_15_9
*217 FILLER_16_100
*218 FILLER_16_3
*219 FILLER_16_37
*220 FILLER_16_59
*221 FILLER_16_7
*222 FILLER_16_82
*223 FILLER_16_85
*224 FILLER_17_15
*225 FILLER_17_23
*226 FILLER_17_27
*227 FILLER_17_29
*228 FILLER_17_3
*229 FILLER_17_36
*230 FILLER_17_44
*231 FILLER_17_49
*232 FILLER_17_55
*233 FILLER_17_70
*234 FILLER_17_82
*235 FILLER_17_85
*236 FILLER_17_97
*237 FILLER_1_100
*238 FILLER_1_104
*239 FILLER_1_15
*240 FILLER_1_21
*241 FILLER_1_3
*242 FILLER_1_57
*243 FILLER_1_65
*244 FILLER_1_86
*245 FILLER_1_91
*246 FILLER_2_27
*247 FILLER_2_29
*248 FILLER_2_37
*249 FILLER_2_41
*250 FILLER_2_6
*251 FILLER_2_70
*252 FILLER_2_78
*253 FILLER_2_85
*254 FILLER_2_97
*255 FILLER_3_100
*256 FILLER_3_3
*257 FILLER_3_30
*258 FILLER_3_40
*259 FILLER_3_57
*260 FILLER_3_68
*261 FILLER_3_79
*262 FILLER_3_91
*263 FILLER_4_18
*264 FILLER_4_26
*265 FILLER_4_29
*266 FILLER_4_41
*267 FILLER_4_52
*268 FILLER_4_6
*269 FILLER_5_20
*270 FILLER_5_32
*271 FILLER_5_40
*272 FILLER_5_51
*273 FILLER_5_55
*274 FILLER_5_57
*275 FILLER_5_6
*276 FILLER_5_69
*277 FILLER_5_73
*278 FILLER_5_89
*279 FILLER_6_23
*280 FILLER_6_37
*281 FILLER_6_54
*282 FILLER_6_66
*283 FILLER_6_81
*284 FILLER_7_23
*285 FILLER_7_29
*286 FILLER_7_55
*287 FILLER_7_80
*288 FILLER_7_84
*289 FILLER_8_18
*290 FILLER_8_26
*291 FILLER_8_42
*292 FILLER_8_6
*293 FILLER_9_26
*294 FILLER_9_54
*295 FILLER_9_57
*296 FILLER_9_65
*297 FILLER_9_81
*298 PHY_EDGE_ROW_0_Left_18
*299 PHY_EDGE_ROW_0_Right_0
*300 PHY_EDGE_ROW_10_Left_28
*301 PHY_EDGE_ROW_10_Right_10
*302 PHY_EDGE_ROW_11_Left_29
*303 PHY_EDGE_ROW_11_Right_11
*304 PHY_EDGE_ROW_12_Left_30
*305 PHY_EDGE_ROW_12_Right_12
*306 PHY_EDGE_ROW_13_Left_31
*307 PHY_EDGE_ROW_13_Right_13
*308 PHY_EDGE_ROW_14_Left_32
*309 PHY_EDGE_ROW_14_Right_14
*310 PHY_EDGE_ROW_15_Left_33
*311 PHY_EDGE_ROW_15_Right_15
*312 PHY_EDGE_ROW_16_Left_34
*313 PHY_EDGE_ROW_16_Right_16
*314 PHY_EDGE_ROW_17_Left_35
*315 PHY_EDGE_ROW_17_Right_17
*316 PHY_EDGE_ROW_1_Left_19
*317 PHY_EDGE_ROW_1_Right_1
*318 PHY_EDGE_ROW_2_Left_20
*319 PHY_EDGE_ROW_2_Right_2
*320 PHY_EDGE_ROW_3_Left_21
*321 PHY_EDGE_ROW_3_Right_3
*322 PHY_EDGE_ROW_4_Left_22
*323 PHY_EDGE_ROW_4_Right_4
*324 PHY_EDGE_ROW_5_Left_23
*325 PHY_EDGE_ROW_5_Right_5
*326 PHY_EDGE_ROW_6_Left_24
*327 PHY_EDGE_ROW_6_Right_6
*328 PHY_EDGE_ROW_7_Left_25
*329 PHY_EDGE_ROW_7_Right_7
*330 PHY_EDGE_ROW_8_Left_26
*331 PHY_EDGE_ROW_8_Right_8
*332 PHY_EDGE_ROW_9_Left_27
*333 PHY_EDGE_ROW_9_Right_9
*334 TAP_TAPCELL_ROW_0_36
*335 TAP_TAPCELL_ROW_0_37
*336 TAP_TAPCELL_ROW_0_38
*337 TAP_TAPCELL_ROW_10_52
*338 TAP_TAPCELL_ROW_10_53
*339 TAP_TAPCELL_ROW_11_54
*340 TAP_TAPCELL_ROW_12_55
*341 TAP_TAPCELL_ROW_12_56
*342 TAP_TAPCELL_ROW_13_57
*343 TAP_TAPCELL_ROW_14_58
*344 TAP_TAPCELL_ROW_14_59
*345 TAP_TAPCELL_ROW_15_60
*346 TAP_TAPCELL_ROW_16_61
*347 TAP_TAPCELL_ROW_16_62
*348 TAP_TAPCELL_ROW_17_63
*349 TAP_TAPCELL_ROW_17_64
*350 TAP_TAPCELL_ROW_17_65
*351 TAP_TAPCELL_ROW_1_39
*352 TAP_TAPCELL_ROW_2_40
*353 TAP_TAPCELL_ROW_2_41
*354 TAP_TAPCELL_ROW_3_42
*355 TAP_TAPCELL_ROW_4_43
*356 TAP_TAPCELL_ROW_4_44
*357 TAP_TAPCELL_ROW_5_45
*358 TAP_TAPCELL_ROW_6_46
*359 TAP_TAPCELL_ROW_6_47
*360 TAP_TAPCELL_ROW_7_48
*361 TAP_TAPCELL_ROW_8_49
*362 TAP_TAPCELL_ROW_8_50
*363 TAP_TAPCELL_ROW_9_51
*364 _068_
*365 _069_
*366 _070_
*367 _071_
*368 _072_
*369 _073_
*370 _074_
*371 _075_
*372 _076_
*373 _077_
*374 _078_
*375 _079_
*376 _080_
*377 _081_
*378 _082_
*379 _083_
*380 _084_
*381 _085_
*382 _086_
*383 _087_
*384 _088_
*385 _089_
*386 _090_
*387 _091_
*388 _092_
*389 _093_
*390 _094_
*391 _095_
*392 _096_
*393 _097_
*394 _098_
*395 _099_
*396 _100_
*397 _101_
*398 _102_
*399 _103_
*400 _104_
*401 _105_
*402 _106_
*403 _107_
*404 _108_
*405 _109_
*406 _110_
*407 _111_
*408 _112_
*409 _113_
*410 _114_
*411 _115_
*412 _116_
*413 _117_
*414 _118_
*415 _119_
*416 _120_
*417 _121_
*418 _122_
*419 _123_
*420 _124_
*421 _125_
*422 _126_
*423 _127_
*424 _128_
*425 _129_
*426 _130_
*427 _131_
*428 _132_
*429 _133_
*430 _134_
*431 _135_
*432 _136_
*433 _137_
*434 _138_
*435 _139_
*436 _140_
*437 _141_
*438 _142_
*439 _143_
*440 _144_
*441 _145_
*442 _146_
*443 _147_
*444 _148_
*445 _149_
*446 _150_
*447 _151_
*448 _152_
*449 _153_
*450 _154_
*451 _155_
*452 _156_
*453 _157_
*454 _158_
*455 _159_
*456 _160_
*457 _161_
*458 _162_
*459 _163_
*460 _164_
*461 _165_
*462 _166_
*463 _167_
*464 _168_
*465 _169_
*466 _170_
*467 clkbuf_0_clk
*468 clkbuf_1_0__f_clk
*469 clkbuf_1_1__f_clk
*470 fanout28
*471 fanout29
*472 fanout30
*473 hold1
*474 hold2
*475 hold3
*476 hold4
*477 hold5
*478 input1
*479 input10
*480 input11
*481 input12
*482 input13
*483 input14
*484 input15
*485 input16
*486 input17
*487 input18
*488 input2
*489 input3
*490 input4
*491 input5
*492 input6
*493 input7
*494 input8
*495 input9
*496 output19
*497 output20
*498 output21
*499 output22
*500 output23
*501 output24
*502 output25
*503 output26
*504 output27

*PORTS
a[0] I
a[1] I
a[2] I
a[3] I
a[4] I
a[5] I
a[6] I
a[7] I
b[0] I
b[1] I
b[2] I
b[3] I
b[4] I
b[5] I
b[6] I
b[7] I
cin I
clk I
cout O
reset I
sum[0] O
sum[1] O
sum[2] O
sum[3] O
sum[4] O
sum[5] O
sum[6] O
sum[7] O

*D_NET *3 0.00108263
*CONN
*P a[0] I
*I *478:A I *D sky130_fd_sc_hd__clkbuf_1
*CAP
1 a[0] 0.000476244
2 *478:A 0
3 *3:15 0.000476244
4 *3:15 *19:15 6.14079e-05
5 *3:15 *101:124 0
6 *3:15 *101:128 6.87362e-05
*RES
1 a[0] *3:15 30.4646 
2 *3:15 *478:A 23 
*END

*D_NET *4 0.000980476
*CONN
*P a[1] I
*I *488:A I *D sky130_fd_sc_hd__clkbuf_1
*CAP
1 a[1] 0.000490238
2 *488:A 0.000490238
3 *488:A cout 0
4 *488:A *23:10 0
*RES
1 a[1] *488:A 48.73 
*END

*D_NET *5 0.000721426
*CONN
*P a[2] I
*I *489:A I *D sky130_fd_sc_hd__clkbuf_1
*CAP
1 a[2] 0.000257747
2 *489:A 0.000257747
3 *489:A *426:A 0
4 *489:A *480:A 7.20676e-05
5 *489:A *487:A 7.82427e-05
6 *489:A *126:8 5.56203e-05
*RES
1 a[2] *489:A 49.1918 
*END

*D_NET *6 0.00154773
*CONN
*P a[3] I
*I *490:A I *D sky130_fd_sc_hd__clkbuf_1
*CAP
1 a[3] 0.000587846
2 *490:A 0
3 *6:11 0.000587846
4 *6:11 sum[2] 0.000135417
5 *6:11 sum[3] 0
6 *6:11 sum[6] 8.47272e-05
7 *6:11 *119:10 0
8 *6:11 *122:8 0
9 *6:11 *125:45 0
10 *6:11 *125:47 0
11 *6:11 *133:8 0.000151899
*RES
1 a[3] *6:11 29.6959 
2 *6:11 *490:A 23 
*END

*D_NET *7 0.0012629
*CONN
*P a[4] I
*I *491:A I *D sky130_fd_sc_hd__clkbuf_1
*CAP
1 a[4] 0.000532973
2 *491:A 0.000532973
3 *491:A *454:D 5.50049e-05
4 *491:A *15:11 0
5 *491:A *101:48 0.000141954
*RES
1 a[4] *491:A 49.5171 
*END

*D_NET *8 0.000666589
*CONN
*P a[5] I
*I *492:A I *D sky130_fd_sc_hd__clkbuf_1
*CAP
1 a[5] 0.000320228
2 *492:A 0
3 *8:17 0.000320228
4 *8:17 *16:17 2.61329e-05
*RES
1 a[5] *8:17 27.1584 
2 *8:17 *492:A 23 
*END

*D_NET *9 0.000818829
*CONN
*P a[6] I
*I *493:A I *D sky130_fd_sc_hd__clkbuf_1
*CAP
1 a[6] 0.000398792
2 *493:A 0
3 *9:17 0.000398792
4 *9:17 *10:11 0
5 *9:17 *17:17 2.12457e-05
6 *9:17 *101:14 0
*RES
1 a[6] *9:17 28.9191 
2 *9:17 *493:A 23 
*END

*D_NET *10 0.00130681
*CONN
*P a[7] I
*I *494:A I *D sky130_fd_sc_hd__clkbuf_1
*CAP
1 a[7] 0.000540336
2 *494:A 0
3 *10:11 0.000540336
4 *10:11 *485:A 8.68758e-05
5 *10:11 *20:11 0
6 *10:11 *137:8 0.000139258
7 *9:17 *10:11 0
*RES
1 a[7] *10:11 29.0861 
2 *10:11 *494:A 23 
*END

*D_NET *11 0.00106389
*CONN
*P b[0] I
*I *495:A I *D sky130_fd_sc_hd__clkbuf_1
*CAP
1 b[0] 0.000531944
2 *495:A 0.000531944
3 *495:A *60:45 0
*RES
1 b[0] *495:A 49.6829 
*END

*D_NET *12 0.00115665
*CONN
*P b[1] I
*I *479:A I *D sky130_fd_sc_hd__clkbuf_1
*CAP
1 b[1] 0.000578327
2 *479:A 0
3 *12:11 0.000578327
4 *12:11 *23:10 0
5 *12:11 *116:10 0
*RES
1 b[1] *12:11 27.3043 
2 *12:11 *479:A 23 
*END

*D_NET *13 0.00113921
*CONN
*P b[2] I
*I *480:A I *D sky130_fd_sc_hd__clkbuf_1
*CAP
1 b[2] 0.000430323
2 *480:A 0.000430323
3 *480:A sum[2] 0
4 *480:A sum[7] 9.60094e-05
5 *480:A *426:A 4.6318e-06
6 *480:A *102:156 0.000105857
7 *489:A *480:A 7.20676e-05
*RES
1 b[2] *480:A 49.3579 
*END

*D_NET *14 0.000471058
*CONN
*P b[3] I
*I *481:A I *D sky130_fd_sc_hd__clkbuf_1
*CAP
1 b[3] 0.000157286
2 *481:A 0.000157286
3 *481:A sum[3] 7.82427e-05
4 *481:A sum[4] 7.82427e-05
5 *481:A *34:10 0
*RES
1 b[3] *481:A 47.0789 
*END

*D_NET *15 0.00176088
*CONN
*P b[4] I
*I *482:A I *D sky130_fd_sc_hd__clkbuf_1
*CAP
1 b[4] 0.000865212
2 *482:A 0
3 *15:11 0.000865212
4 *15:11 *44:8 3.04568e-05
5 *491:A *15:11 0
*RES
1 b[4] *15:11 31.3643 
2 *15:11 *482:A 23 
*END

*D_NET *16 0.000744793
*CONN
*P b[5] I
*I *483:A I *D sky130_fd_sc_hd__clkbuf_1
*CAP
1 b[5] 0.00035933
2 *483:A 0
3 *16:17 0.00035933
4 *16:17 *17:17 0
5 *16:17 *101:29 0
6 *16:17 *109:8 0
7 *8:17 *16:17 2.61329e-05
*RES
1 b[5] *16:17 28.2148 
2 *16:17 *483:A 23 
*END

*D_NET *17 0.00068134
*CONN
*P b[6] I
*I *484:A I *D sky130_fd_sc_hd__clkbuf_1
*CAP
1 b[6] 0.000330047
2 *484:A 0
3 *17:17 0.000330047
4 *17:17 *101:29 0
5 *9:17 *17:17 2.12457e-05
6 *16:17 *17:17 0
*RES
1 b[6] *17:17 27.5105 
2 *17:17 *484:A 23 
*END

*D_NET *18 0.000809984
*CONN
*P b[7] I
*I *485:A I *D sky130_fd_sc_hd__clkbuf_1
*CAP
1 b[7] 0.000259389
2 *485:A 0.000259389
3 *485:A *20:11 7.85126e-05
4 *485:A *101:102 0.000103168
5 *485:A *111:8 2.26497e-05
6 *10:11 *485:A 8.68758e-05
*RES
1 b[7] *485:A 48.8427 
*END

*D_NET *19 0.00165874
*CONN
*P cin I
*I *486:A I *D sky130_fd_sc_hd__clkbuf_1
*CAP
1 cin 0.000379439
2 *486:A 0
3 *19:15 0.000379439
4 *19:15 *20:11 8.68758e-05
5 *19:15 *101:111 0.000183171
6 *19:15 *101:124 0.000224345
7 *19:15 *101:128 1.32314e-05
8 *19:15 *112:8 0.000330827
9 *3:15 *19:15 6.14079e-05
*RES
1 cin *19:15 30.2134 
2 *19:15 *486:A 23 
*END

*D_NET *20 0.00485761
*CONN
*P clk I
*I *467:A I *D sky130_fd_sc_hd__clkbuf_16
*CAP
1 clk 0.00216656
2 *467:A 0
3 *20:11 0.00216656
4 *20:11 *397:A1 0.000103804
5 *20:11 *90:14 0.000255292
6 *485:A *20:11 7.85126e-05
7 *10:11 *20:11 0
8 *19:15 *20:11 8.68758e-05
*RES
1 clk *20:11 39.3746 
2 *20:11 *467:A 23 
*END

*D_NET *21 0.00100219
*CONN
*P cout O
*I *496:X O *D sky130_fd_sc_hd__buf_2
*CAP
1 cout 0.000501094
2 *496:X 0.000501094
3 *488:A cout 0
*RES
1 *496:X cout 48.9786 
*END

*D_NET *22 0.00116347
*CONN
*P reset I
*I *487:A I *D sky130_fd_sc_hd__clkbuf_1
*CAP
1 reset 0.000480827
2 *487:A 0.000480827
3 *487:A sum[1] 9.8882e-05
4 *487:A *125:31 2.46922e-05
5 *489:A *487:A 7.82427e-05
*RES
1 reset *487:A 47.9376 
*END

*D_NET *23 0.00135062
*CONN
*P sum[0] O
*I *497:X O *D sky130_fd_sc_hd__buf_2
*CAP
1 sum[0] 6.5784e-05
2 *497:X 0.000583079
3 *23:10 0.000648863
4 *23:10 *127:94 5.2894e-05
5 *488:A *23:10 0
6 *12:11 *23:10 0
*RES
1 *497:X *23:10 49.5275 
2 *23:10 sum[0] 1.50179 
*END

*D_NET *24 0.00107647
*CONN
*P sum[1] O
*I *498:X O *D sky130_fd_sc_hd__buf_2
*CAP
1 sum[1] 0.000195419
2 *498:X 0.000256948
3 *24:8 0.000452368
4 *24:8 *416:A 0
5 *24:8 *117:8 7.28526e-05
6 *487:A sum[1] 9.8882e-05
*RES
1 *498:X *24:8 43.2511 
2 *24:8 sum[1] 8.9296 
*END

*D_NET *25 0.00149012
*CONN
*P sum[2] O
*I *499:X O *D sky130_fd_sc_hd__buf_2
*CAP
1 sum[2] 0.000257897
2 *499:X 0.000126635
3 *25:8 0.000384532
4 sum[2] sum[7] 9.60094e-05
5 *25:8 *38:8 3.79966e-05
6 *25:8 *102:156 0.000111158
7 *25:8 *118:10 0.000340479
8 *480:A sum[2] 0
9 *6:11 sum[2] 0.000135417
*RES
1 *499:X *25:8 42.5468 
2 *25:8 sum[2] 9.27307 
*END

*D_NET *26 0.000952906
*CONN
*P sum[3] O
*I *500:X O *D sky130_fd_sc_hd__buf_2
*CAP
1 sum[3] 0.000371715
2 *500:X 0.000371715
3 sum[3] sum[4] 0
4 sum[3] sum[6] 9.8882e-05
5 sum[3] *119:10 3.23515e-05
6 sum[3] *125:47 0
7 *481:A sum[3] 7.82427e-05
8 *6:11 sum[3] 0
*RES
1 *500:X sum[3] 48.2984 
*END

*D_NET *27 0.000621626
*CONN
*P sum[4] O
*I *501:X O *D sky130_fd_sc_hd__buf_2
*CAP
1 sum[4] 0.000259496
2 *501:X 0.000259496
3 sum[4] *120:8 2.43903e-05
4 sum[3] sum[4] 0
5 *481:A sum[4] 7.82427e-05
*RES
1 *501:X sum[4] 47.6028 
*END

*D_NET *28 0.00143478
*CONN
*P sum[5] O
*I *502:X O *D sky130_fd_sc_hd__buf_2
*CAP
1 sum[5] 0.000472269
2 *502:X 0.00012917
3 *28:8 0.000601439
4 sum[5] *420:A 0
5 sum[5] *102:26 0.000132151
6 sum[5] *143:10 7.03663e-05
7 *28:8 *502:A 2.93845e-05
*RES
1 *502:X *28:8 39.5743 
2 *28:8 sum[5] 10.8129 
*END

*D_NET *29 0.000685052
*CONN
*P sum[6] O
*I *503:X O *D sky130_fd_sc_hd__buf_2
*CAP
1 sum[6] 0.00023455
2 *503:X 0.00023455
3 sum[6] *122:8 3.23422e-05
4 sum[3] sum[6] 9.8882e-05
5 *6:11 sum[6] 8.47272e-05
*RES
1 *503:X sum[6] 47.955 
*END

*D_NET *30 0.000675507
*CONN
*P sum[7] O
*I *504:X O *D sky130_fd_sc_hd__buf_2
*CAP
1 sum[7] 0.000214178
2 *504:X 0.000214178
3 sum[7] *118:10 2.2781e-05
4 sum[7] *123:8 3.23515e-05
5 sum[2] sum[7] 9.60094e-05
6 *480:A sum[7] 9.60094e-05
*RES
1 *504:X sum[7] 47.955 
*END

*D_NET *31 0.000368355
*CONN
*I *441:RESET_B I *D sky130_fd_sc_hd__dfrtp_1
*I *364:Y O *D sky130_fd_sc_hd__inv_2
*CAP
1 *441:RESET_B 0
2 *364:Y 0.000107225
3 *31:10 0.000107225
4 *31:10 *115:8 0.000114083
5 *31:10 *124:14 7.53384e-06
6 *31:10 *124:16 3.22879e-05
*RES
1 *364:Y *31:10 40.175 
2 *31:10 *441:RESET_B 15 
*END

*D_NET *32 0.000502385
*CONN
*I *442:RESET_B I *D sky130_fd_sc_hd__dfrtp_1
*I *416:Y O *D sky130_fd_sc_hd__inv_2
*CAP
1 *442:RESET_B 0
2 *416:Y 0.000152748
3 *32:10 0.000152748
4 *32:10 *416:A 0.000196889
*RES
1 *416:Y *32:10 41.0036 
2 *32:10 *442:RESET_B 15 
*END

*D_NET *33 0.000729382
*CONN
*I *443:RESET_B I *D sky130_fd_sc_hd__dfrtp_1
*I *417:Y O *D sky130_fd_sc_hd__inv_2
*CAP
1 *443:RESET_B 3.43879e-05
2 *417:Y 0.000240112
3 *33:8 0.0002745
4 *443:RESET_B *118:10 9.18637e-05
5 *33:8 *118:10 0
6 *33:8 *123:8 8.85189e-05
*RES
1 *417:Y *33:8 42.3707 
2 *33:8 *443:RESET_B 16.0254 
*END

*D_NET *34 0.000470125
*CONN
*I *444:RESET_B I *D sky130_fd_sc_hd__dfrtp_1
*I *418:Y O *D sky130_fd_sc_hd__inv_2
*CAP
1 *444:RESET_B 0
2 *418:Y 0.000184972
3 *34:10 0.000184972
4 *34:10 *418:A 0.00010018
5 *34:10 *107:8 0
6 *34:10 *125:47 0
7 *481:A *34:10 0
*RES
1 *418:Y *34:10 41.3557 
2 *34:10 *444:RESET_B 15 
*END

*D_NET *35 0.000397372
*CONN
*I *445:RESET_B I *D sky130_fd_sc_hd__dfrtp_1
*I *419:Y O *D sky130_fd_sc_hd__inv_2
*CAP
1 *445:RESET_B 0
2 *419:Y 0.000188951
3 *35:10 0.000188951
4 *35:10 *419:A 1.94693e-05
5 *35:10 *420:A 0
6 *35:10 *120:8 0
*RES
1 *419:Y *35:10 41.2314 
2 *35:10 *445:RESET_B 15 
*END

*D_NET *36 0.000457718
*CONN
*I *446:RESET_B I *D sky130_fd_sc_hd__dfrtp_1
*I *420:Y O *D sky130_fd_sc_hd__inv_2
*CAP
1 *446:RESET_B 0
2 *420:Y 0.000213542
3 *36:10 0.000213542
4 *36:10 *420:A 3.06338e-05
5 *36:10 *102:26 0
*RES
1 *420:Y *36:10 41.7079 
2 *36:10 *446:RESET_B 15 
*END

*D_NET *37 0.00034345
*CONN
*I *447:RESET_B I *D sky130_fd_sc_hd__dfrtp_1
*I *421:Y O *D sky130_fd_sc_hd__inv_2
*CAP
1 *447:RESET_B 5.94537e-05
2 *421:Y 4.63418e-05
3 *37:8 0.000105796
4 *37:8 *125:45 8.85189e-05
5 *37:8 *133:8 4.334e-05
*RES
1 *421:Y *37:8 39.2014 
2 *37:8 *447:RESET_B 16.0461 
*END

*D_NET *38 0.000797794
*CONN
*I *448:RESET_B I *D sky130_fd_sc_hd__dfrtp_1
*I *422:Y O *D sky130_fd_sc_hd__inv_2
*CAP
1 *448:RESET_B 0
2 *422:Y 0.000164448
3 *38:8 0.000164448
4 *38:8 *102:156 0.000222123
5 *38:8 *118:10 0
6 *38:8 *125:33 7.03869e-05
7 *38:8 *125:39 0.000138392
8 *25:8 *38:8 3.79966e-05
*RES
1 *422:Y *38:8 43.4271 
2 *38:8 *448:RESET_B 15 
*END

*D_NET *39 0.000343297
*CONN
*I *449:RESET_B I *D sky130_fd_sc_hd__dfrtp_1
*I *423:Y O *D sky130_fd_sc_hd__inv_2
*CAP
1 *449:RESET_B 0.000107991
2 *423:Y 0.000107991
3 *449:RESET_B *124:22 0.000127315
*RES
1 *423:Y *449:RESET_B 25.4546 
*END

*D_NET *40 0.000269036
*CONN
*I *450:RESET_B I *D sky130_fd_sc_hd__dfrtp_1
*I *424:Y O *D sky130_fd_sc_hd__inv_2
*CAP
1 *450:RESET_B 0
2 *424:Y 0.000134518
3 *40:8 0.000134518
4 *40:8 *432:A 0
5 *40:8 *104:8 0
6 *40:8 *112:8 0
*RES
1 *424:Y *40:8 40.61 
2 *40:8 *450:RESET_B 15 
*END

*D_NET *41 0.000453525
*CONN
*I *451:RESET_B I *D sky130_fd_sc_hd__dfrtp_1
*I *425:Y O *D sky130_fd_sc_hd__inv_2
*CAP
1 *451:RESET_B 3.91738e-05
2 *425:Y 0.000141654
3 *41:8 0.000180828
4 *451:RESET_B *102:121 9.18694e-05
5 *41:8 *451:CLK 0
6 *41:8 *127:94 0
*RES
1 *425:Y *41:8 40.61 
2 *41:8 *451:RESET_B 16.0254 
*END

*D_NET *42 0.000437355
*CONN
*I *452:RESET_B I *D sky130_fd_sc_hd__dfrtp_1
*I *426:Y O *D sky130_fd_sc_hd__inv_2
*CAP
1 *452:RESET_B 6.01283e-05
2 *426:Y 4.96283e-05
3 *42:8 0.000109757
4 *452:RESET_B *102:156 4.81382e-05
5 *42:8 *426:A 0.000114083
6 *42:8 *102:156 5.56203e-05
*RES
1 *426:Y *42:8 39.5536 
2 *42:8 *452:RESET_B 16.0254 
*END

*D_NET *43 0.000248539
*CONN
*I *453:RESET_B I *D sky130_fd_sc_hd__dfrtp_1
*I *427:Y O *D sky130_fd_sc_hd__inv_2
*CAP
1 *453:RESET_B 0
2 *427:Y 8.95969e-05
3 *43:8 8.95969e-05
4 *43:8 *71:8 6.93449e-05
*RES
1 *427:Y *43:8 39.9057 
2 *43:8 *453:RESET_B 15 
*END

*D_NET *44 0.000640592
*CONN
*I *454:RESET_B I *D sky130_fd_sc_hd__dfrtp_1
*I *428:Y O *D sky130_fd_sc_hd__inv_2
*CAP
1 *454:RESET_B 0
2 *428:Y 0.000305068
3 *44:8 0.000305068
4 *44:8 *124:36 0
5 *44:8 *124:44 0
6 *44:8 *147:8 0
7 *44:8 *148:10 0
8 *15:11 *44:8 3.04568e-05
*RES
1 *428:Y *44:8 43.4271 
2 *44:8 *454:RESET_B 15 
*END

*D_NET *45 0.000359994
*CONN
*I *455:RESET_B I *D sky130_fd_sc_hd__dfrtp_1
*I *429:Y O *D sky130_fd_sc_hd__inv_2
*CAP
1 *455:RESET_B 0
2 *429:Y 0.000105696
3 *45:10 0.000105696
4 *45:10 *429:A 3.22879e-05
5 *45:10 *101:48 0.000116314
*RES
1 *429:Y *45:10 40.175 
2 *45:10 *455:RESET_B 15 
*END

*D_NET *46 0.00111171
*CONN
*I *456:RESET_B I *D sky130_fd_sc_hd__dfrtp_1
*I *430:Y O *D sky130_fd_sc_hd__inv_2
*CAP
1 *456:RESET_B 6.25089e-05
2 *430:Y 0.000365365
3 *46:10 0.000427874
4 *46:10 *430:A 0.00010655
5 *46:10 *54:8 0.000141879
6 *46:10 *124:30 0
7 *46:10 *124:78 7.53384e-06
8 *46:10 *151:10 0
*RES
1 *430:Y *46:10 44.7736 
2 *46:10 *456:RESET_B 16.0461 
*END

*D_NET *47 0.000378427
*CONN
*I *457:RESET_B I *D sky130_fd_sc_hd__dfrtp_1
*I *431:Y O *D sky130_fd_sc_hd__inv_2
*CAP
1 *457:RESET_B 5.68768e-05
2 *431:Y 5.68768e-05
3 *457:RESET_B *101:8 0.000223988
4 *457:RESET_B *153:8 4.06849e-05
*RES
1 *431:Y *457:RESET_B 25.4546 
*END

*D_NET *48 0.00038258
*CONN
*I *458:RESET_B I *D sky130_fd_sc_hd__dfrtp_1
*I *432:Y O *D sky130_fd_sc_hd__inv_2
*CAP
1 *458:RESET_B 0
2 *432:Y 0.000119798
3 *48:10 0.000119798
4 *48:10 *101:128 5.67058e-05
5 *48:10 *124:109 8.62783e-05
6 *48:10 *130:10 0
*RES
1 *432:Y *48:10 40.175 
2 *48:10 *458:RESET_B 15 
*END

*D_NET *49 0.00110537
*CONN
*I *459:RESET_B I *D sky130_fd_sc_hd__dfrtp_1
*I *433:Y O *D sky130_fd_sc_hd__inv_2
*CAP
1 *459:RESET_B 0
2 *433:Y 0.000453351
3 *49:10 0.000453351
4 *49:10 *371:A1 0
5 *49:10 *125:22 9.84851e-05
6 *49:10 *127:40 0.00010018
7 *49:10 *127:94 0
8 *49:10 *128:8 0
9 *49:10 *157:10 0
10 *49:10 *158:10 0
*RES
1 *433:Y *49:10 46.6379 
2 *49:10 *459:RESET_B 15 
*END

*D_NET *50 0.00046569
*CONN
*I *460:RESET_B I *D sky130_fd_sc_hd__dfrtp_1
*I *434:Y O *D sky130_fd_sc_hd__inv_2
*CAP
1 *460:RESET_B 0
2 *434:Y 0.000133011
3 *50:10 0.000133011
4 *50:10 *434:A 6.57551e-05
5 *50:10 *468:A 6.17437e-06
6 *50:10 *469:A 2.02872e-05
7 *50:10 *58:10 4.48671e-05
8 *50:10 *100:8 6.25829e-05
*RES
1 *434:Y *50:10 41.2314 
2 *50:10 *460:RESET_B 15 
*END

*D_NET *51 0.000441951
*CONN
*I *461:RESET_B I *D sky130_fd_sc_hd__dfrtp_1
*I *435:Y O *D sky130_fd_sc_hd__inv_2
*CAP
1 *461:RESET_B 0
2 *435:Y 0.000217888
3 *51:10 0.000217888
4 *51:10 *407:A 0
5 *51:10 *435:A 6.17437e-06
6 *51:10 *73:14 0
7 *51:10 *102:26 0
*RES
1 *435:Y *51:10 41.5836 
2 *51:10 *461:RESET_B 15 
*END

*D_NET *52 0.000350937
*CONN
*I *462:RESET_B I *D sky130_fd_sc_hd__dfrtp_1
*I *436:Y O *D sky130_fd_sc_hd__inv_2
*CAP
1 *462:RESET_B 7.30735e-05
2 *436:Y 7.30735e-05
3 *462:RESET_B *462:D 3.08719e-06
4 *462:RESET_B *124:44 6.46633e-05
5 *462:RESET_B *148:10 0.000137039
*RES
1 *436:Y *462:RESET_B 25.4546 
*END

*D_NET *53 0.000371913
*CONN
*I *463:RESET_B I *D sky130_fd_sc_hd__dfrtp_1
*I *437:Y O *D sky130_fd_sc_hd__inv_2
*CAP
1 *463:RESET_B 0.000135867
2 *437:Y 0.000135867
3 *463:RESET_B *150:8 0.00010018
*RES
1 *437:Y *463:RESET_B 25.9311 
*END

*D_NET *54 0.000336083
*CONN
*I *464:RESET_B I *D sky130_fd_sc_hd__dfrtp_1
*I *438:Y O *D sky130_fd_sc_hd__inv_2
*CAP
1 *464:RESET_B 0
2 *438:Y 9.71022e-05
3 *54:8 9.71022e-05
4 *46:10 *54:8 0.000141879
*RES
1 *438:Y *54:8 40.2579 
2 *54:8 *464:RESET_B 15 
*END

*D_NET *55 0.00037154
*CONN
*I *465:RESET_B I *D sky130_fd_sc_hd__dfrtp_1
*I *439:Y O *D sky130_fd_sc_hd__inv_2
*CAP
1 *465:RESET_B 7.19112e-05
2 *439:Y 7.19112e-05
3 *465:RESET_B *127:61 0.000127537
4 *465:RESET_B *154:10 0.00010018
*RES
1 *439:Y *465:RESET_B 25.4546 
*END

*D_NET *56 0.000286901
*CONN
*I *466:RESET_B I *D sky130_fd_sc_hd__dfrtp_1
*I *440:Y O *D sky130_fd_sc_hd__inv_2
*CAP
1 *466:RESET_B 0
2 *440:Y 0.00014345
3 *56:8 0.00014345
4 *56:8 *432:A 0
5 *56:8 *101:102 0
6 *56:8 *101:111 0
*RES
1 *440:Y *56:8 40.61 
2 *56:8 *466:RESET_B 15 
*END

*D_NET *57 0.00153437
*CONN
*I *411:B I *D sky130_fd_sc_hd__nor2_1
*I *410:Y O *D sky130_fd_sc_hd__a21oi_1
*CAP
1 *411:B 0.000325378
2 *410:Y 9.17955e-05
3 *57:8 0.000417173
4 *411:B *365:A 0.000268868
5 *411:B *368:A1 2.16575e-05
6 *411:B *59:6 5.50106e-05
7 *411:B *59:38 0.000260375
8 *411:B *60:8 1.16862e-05
9 *411:B *62:8 8.24312e-05
10 *57:8 *432:A 0
11 *57:8 *132:10 0
*RES
1 *410:Y *57:8 39.5536 
2 *57:8 *411:B 46.1407 
*END

*D_NET *58 0.00162022
*CONN
*I *414:B I *D sky130_fd_sc_hd__and2_1
*I *413:X O *D sky130_fd_sc_hd__or2_1
*CAP
1 *414:B 0
2 *413:X 0.000708495
3 *58:10 0.000708495
4 *58:10 *413:A 5.14746e-06
5 *58:10 *413:B 9.58714e-05
6 *58:10 *66:10 0
7 *58:10 *67:10 0
8 *58:10 *160:6 5.73473e-05
9 *50:10 *58:10 4.48671e-05
*RES
1 *413:X *58:10 48.15 
2 *58:10 *414:B 38 
*END

*D_NET *59 0.003281
*CONN
*I *368:B1_N I *D sky130_fd_sc_hd__a21boi_1
*I *367:B I *D sky130_fd_sc_hd__and3_1
*I *410:A1 I *D sky130_fd_sc_hd__a21oi_1
*I *365:Y O *D sky130_fd_sc_hd__nand2_1
*CAP
1 *368:B1_N 0
2 *367:B 0.000258476
3 *410:A1 0.000254365
4 *365:Y 4.57773e-05
5 *59:38 0.000240651
6 *59:10 0.000617692
7 *59:6 0.00039128
8 *367:B *367:A 3.05418e-05
9 *367:B *60:45 0.000222104
10 *367:B *101:149 3.47879e-05
11 *367:B *124:109 7.39034e-05
12 *410:A1 *101:128 0.000141052
13 *410:A1 *101:149 0.000226295
14 *59:10 *60:14 8.4047e-05
15 *59:10 *60:45 2.70836e-05
16 *59:10 *101:149 3.43603e-05
17 *59:10 *124:28 0.000136486
18 *59:10 *124:109 8.72173e-05
19 *59:38 *61:10 5.94936e-05
20 *411:B *59:6 5.50106e-05
21 *411:B *59:38 0.000260375
*RES
1 *365:Y *59:6 23.6214 
2 *59:6 *59:10 17.9621 
3 *59:10 *410:A1 41.9564 
4 *59:10 *367:B 43.1164 
5 *59:6 *59:38 33.8529 
6 *59:38 *368:B1_N 23 
*END

*D_NET *60 0.0040058
*CONN
*I *368:A2 I *D sky130_fd_sc_hd__a21boi_1
*I *367:C I *D sky130_fd_sc_hd__and3_1
*I *410:A2 I *D sky130_fd_sc_hd__a21oi_1
*I *366:X O *D sky130_fd_sc_hd__or2_1
*CAP
1 *368:A2 0
2 *367:C 1.5016e-05
3 *410:A2 0.000408692
4 *366:X 0.000329843
5 *60:45 0.000504934
6 *60:14 0.00106457
7 *60:8 0.000495807
8 *367:C *367:A 1.95448e-05
9 *410:A2 *449:CLK 0
10 *410:A2 *101:128 0.00010655
11 *410:A2 *101:149 4.20862e-05
12 *410:A2 *124:22 6.99177e-05
13 *60:8 *365:A 6.7421e-05
14 *60:8 *365:B 0.000106505
15 *60:8 *62:8 1.11037e-05
16 *60:8 *155:8 0.00010018
17 *60:14 *101:149 1.74983e-05
18 *60:14 *124:28 3.62219e-05
19 *60:45 *61:10 0
20 *60:45 *101:149 0.000218235
21 *60:45 *156:8 4.67488e-05
22 *367:B *60:45 0.000222104
23 *411:B *60:8 1.16862e-05
24 *495:A *60:45 0
25 *59:10 *60:14 8.4047e-05
26 *59:10 *60:45 2.70836e-05
*RES
1 *366:X *60:8 28.2821 
2 *60:8 *60:14 17.8793 
3 *60:14 *410:A2 44.8771 
4 *60:14 *60:45 39.8186 
5 *60:45 *367:C 38.2279 
6 *60:8 *368:A2 23 
*END

*D_NET *61 0.00159202
*CONN
*I *411:A I *D sky130_fd_sc_hd__nor2_1
*I *367:X O *D sky130_fd_sc_hd__and3_1
*CAP
1 *411:A 0
2 *367:X 0.0004479
3 *61:10 0.0004479
4 *61:10 *367:A 0.000229507
5 *61:10 *368:A1 0.000407218
6 *59:38 *61:10 5.94936e-05
7 *60:45 *61:10 0
*RES
1 *367:X *61:10 47.4664 
2 *61:10 *411:A 38 
*END

*D_NET *62 0.00412306
*CONN
*I *370:B I *D sky130_fd_sc_hd__xnor2_1
*I *369:A_N I *D sky130_fd_sc_hd__and2b_1
*I *368:Y O *D sky130_fd_sc_hd__a21boi_1
*CAP
1 *370:B 0
2 *369:A_N 0
3 *368:Y 0.00100287
4 *62:25 0.000541293
5 *62:8 0.00154417
6 *62:8 *368:A1 0.000187968
7 *62:25 *369:B 0.000182826
8 *62:25 *370:A 0.000218928
9 *62:25 *371:A1 5.94125e-05
10 *62:25 *412:B 0.000276089
11 *62:25 *63:8 9.24795e-06
12 *62:25 *157:10 6.7177e-06
13 *411:B *62:8 8.24312e-05
14 *60:8 *62:8 1.11037e-05
*RES
1 *368:Y *62:8 40.7936 
2 *62:8 *369:A_N 23 
3 *62:8 *62:25 39.8393 
4 *62:25 *370:B 23 
*END

*D_NET *63 0.00140142
*CONN
*I *371:B1 I *D sky130_fd_sc_hd__a21oi_1
*I *369:X O *D sky130_fd_sc_hd__and2b_1
*CAP
1 *371:B1 0
2 *369:X 0.000260008
3 *63:8 0.000260008
4 *63:8 *369:B 2.62917e-05
5 *63:8 *370:A 0.000268868
6 *63:8 *371:A1 0.000397596
7 *63:8 *371:A2 1.76557e-05
8 *63:8 *412:A 7.89156e-05
9 *63:8 *412:B 8.2832e-05
10 *62:25 *63:8 9.24795e-06
*RES
1 *369:X *63:8 31.265 
2 *63:8 *371:B1 23 
*END

*D_NET *64 0.00143951
*CONN
*I *371:A2 I *D sky130_fd_sc_hd__a21oi_1
*I *412:B I *D sky130_fd_sc_hd__xor2_1
*I *370:Y O *D sky130_fd_sc_hd__xnor2_1
*CAP
1 *371:A2 0.00010927
2 *412:B 0.000184518
3 *370:Y 0
4 *64:4 0.000293788
5 *371:A2 *371:A1 4.72659e-05
6 *371:A2 *65:10 5.67058e-05
7 *412:B *370:A 4.66047e-05
8 *412:B *65:10 9.84851e-05
9 *412:B *140:10 0.0002263
10 *62:25 *412:B 0.000276089
11 *63:8 *371:A2 1.76557e-05
12 *63:8 *412:B 8.2832e-05
*RES
1 *370:Y *64:4 23 
2 *64:4 *412:B 28.8829 
3 *64:4 *371:A2 26.045 
*END

*D_NET *65 0.00259431
*CONN
*I *372:A_N I *D sky130_fd_sc_hd__and2b_1
*I *374:B I *D sky130_fd_sc_hd__xnor2_1
*I *371:Y O *D sky130_fd_sc_hd__a21oi_1
*CAP
1 *372:A_N 0
2 *374:B 8.14208e-05
3 *371:Y 0.000478472
4 *65:29 0.000153632
5 *65:14 0.000514294
6 *65:10 0.000757714
7 *374:B *374:A 6.64204e-05
8 *65:10 *416:A 0
9 *65:10 *102:113 0
10 *65:10 *125:31 0
11 *65:10 *140:10 1.01436e-05
12 *65:14 *374:A 0.000127821
13 *65:14 *159:6 0.000182832
14 *65:29 *159:21 6.63698e-05
15 *371:A2 *65:10 5.67058e-05
16 *412:B *65:10 9.84851e-05
*RES
1 *371:Y *65:10 45.7057 
2 *65:10 *65:14 20.3857 
3 *65:14 *374:B 24.595 
4 *65:14 *65:29 32.9621 
5 *65:29 *372:A_N 23 
*END

*D_NET *66 0.00232246
*CONN
*I *377:B I *D sky130_fd_sc_hd__or3b_1
*I *373:A I *D sky130_fd_sc_hd__inv_2
*I *372:X O *D sky130_fd_sc_hd__and2b_1
*CAP
1 *377:B 0
2 *373:A 0.000139978
3 *372:X 0.000374498
4 *66:10 0.000514476
5 *373:A *67:10 0.000277986
6 *373:A *102:10 2.60152e-05
7 *373:A *102:12 7.34858e-05
8 *373:A *102:14 2.60152e-05
9 *373:A *102:16 4.6318e-06
10 *373:A *102:84 2.93845e-05
11 *373:A *133:16 1.76557e-05
12 *66:10 *375:B 6.17437e-06
13 *66:10 *413:B 0.000273604
14 *66:10 *67:10 0.000155077
15 *66:10 *68:10 5.33597e-05
16 *66:10 *102:10 4.334e-05
17 *66:10 *102:100 0.000109223
18 *66:10 *106:14 7.49267e-05
19 *66:10 *159:21 0.000122627
20 *58:10 *66:10 0
*RES
1 *372:X *66:10 47.2179 
2 *66:10 *373:A 42.2879 
3 *66:10 *377:B 38 
*END

*D_NET *67 0.00188234
*CONN
*I *376:A1 I *D sky130_fd_sc_hd__a21boi_1
*I *373:Y O *D sky130_fd_sc_hd__inv_2
*CAP
1 *376:A1 5.51895e-05
2 *373:Y 0.000198338
3 *67:10 0.000253528
4 *376:A1 *469:A 0.000228903