*SPEF "ieee 1481-1999"
*DESIGN "reversible_wrapper"
*DATE "20:21:39 Wednesday November 05, 2025"
*VENDOR "The OpenROAD Project"
*PROGRAM "OpenROAD"
*VERSION "edf00dff99f6c40d67a30c0e22a8191c5d2ed9d6"
*DESIGN_FLOW "NAME_SCOPE LOCAL" "PIN_CAP NONE"
*DIVIDER /
*DELIMITER :
*BUS_DELIMITER []
*T_UNIT 1 NS
*C_UNIT 1 PF
*R_UNIT 1 OHM
*L_UNIT 1 HENRY

*NAME_MAP
*3 a[0]
*4 a[1]
*5 a[2]
*6 a[3]
*7 a[4]
*8 a[5]
*9 a[6]
*10 a[7]
*11 anc[0]
*12 anc[1]
*13 anc[2]
*14 anc[3]
*15 anc[4]
*16 anc[5]
*17 anc[6]
*18 anc[7]
*19 b[0]
*20 b[1]
*21 b[2]
*22 b[3]
*23 b[4]
*24 b[5]
*25 b[6]
*26 b[7]
*27 cin
*28 clk
*29 cout
*30 enable
*31 g_a[0]
*32 g_a[1]
*33 g_a[2]
*34 g_a[3]
*35 g_a[4]
*36 g_a[5]
*37 g_a[6]
*38 g_a[7]
*39 g_ab[0]
*40 g_ab[1]
*41 g_ab[2]
*42 g_ab[3]
*43 g_ab[4]
*44 g_ab[5]
*45 g_ab[6]
*46 g_ab[7]
*47 reset
*48 sum[0]
*49 sum[1]
*50 sum[2]
*51 sum[3]
*52 sum[4]
*53 sum[5]
*54 sum[6]
*55 sum[7]
*56 _000_
*57 _001_
*58 _002_
*59 _003_
*60 _004_
*61 _005_
*62 _006_
*63 _007_
*64 _008_
*65 _009_
*66 _010_
*67 _011_
*68 _012_
*69 _013_
*70 _014_
*71 _015_
*72 _016_
*73 _017_
*74 _018_
*75 _019_
*76 _020_
*77 _021_
*78 _022_
*79 _023_
*80 _024_
*81 _025_
*82 _026_
*83 _027_
*84 _028_
*85 _029_
*86 _030_
*87 _031_
*88 _032_
*89 _033_
*90 _034_
*91 _035_
*92 _036_
*93 _037_
*94 _038_
*95 _039_
*96 _040_
*97 _041_
*98 _042_
*99 _043_
*100 _044_
*101 _045_
*102 _046_
*103 _047_
*104 _048_
*105 _049_
*106 _050_
*107 _051_
*108 _052_
*109 _053_
*110 _054_
*111 _055_
*112 _056_
*113 _057_
*114 _058_
*115 _059_
*116 _060_
*117 _061_
*118 _062_
*119 _063_
*120 _064_
*121 _065_
*122 _066_
*123 _067_
*124 _068_
*125 _069_
*126 _070_
*127 _071_
*128 _072_
*129 _073_
*130 _074_
*131 _075_
*132 _076_
*133 _077_
*134 _078_
*135 _079_
*136 _080_
*137 _081_
*138 _082_
*139 _083_
*140 _084_
*141 _085_
*142 _086_
*143 _087_
*144 _088_
*145 _089_
*146 _090_
*147 _091_
*148 _092_
*149 _093_
*150 _094_
*151 _095_
*152 _096_
*153 _097_
*154 _098_
*155 _099_
*156 _100_
*157 _101_
*158 _102_
*159 _103_
*160 _104_
*161 _105_
*162 _106_
*163 _107_
*164 _108_
*165 _109_
*166 _110_
*167 _111_
*168 _112_
*169 _113_
*170 _114_
*171 _115_
*172 _116_
*173 _117_
*174 _118_
*175 _119_
*176 _120_
*177 _121_
*178 _122_
*179 _123_
*180 _124_
*181 _125_
*182 _126_
*183 _127_
*184 _128_
*185 _129_
*186 _130_
*187 _131_
*188 _132_
*189 _133_
*190 _134_
*191 _135_
*192 _136_
*193 _137_
*194 _138_
*195 _139_
*196 _140_
*197 _141_
*198 _142_
*199 cin_r
*200 clknet_0_clk
*201 clknet_2_0__leaf_clk
*202 clknet_2_1__leaf_clk
*203 clknet_2_2__leaf_clk
*204 clknet_2_3__leaf_clk
*205 net1
*206 net10
*207 net11
*208 net12
*209 net13
*210 net14
*211 net15
*212 net16
*213 net17
*214 net18
*215 net19
*216 net2
*217 net20
*218 net21
*219 net22
*220 net23
*221 net24
*222 net25
*223 net26
*224 net27
*225 net28
*226 net29
*227 net3
*228 net30
*229 net31
*230 net32
*231 net33
*232 net34
*233 net35
*234 net36
*235 net37
*236 net38
*237 net39
*238 net4
*239 net40
*240 net41
*241 net42
*242 net43
*243 net44
*244 net45
*245 net46
*246 net47
*247 net48
*248 net49
*249 net5
*250 net50
*251 net51
*252 net52
*253 net53
*254 net54
*255 net55
*256 net56
*257 net57
*258 net58
*259 net59
*260 net6
*261 net60
*262 net61
*263 net62
*264 net63
*265 net64
*266 net65
*267 net66
*268 net67
*269 net68
*270 net69
*271 net7
*272 net70
*273 net71
*274 net8
*275 net9
*276 u_rev\.rfa_bits\[0\]\.fa_ga
*277 u_rev\.rfa_bits\[0\]\.rfa\.anc_in
*278 u_rev\.rfa_bits\[0\]\.rfa\.b
*279 u_rev\.rfa_bits\[1\]\.fa_ga
*280 u_rev\.rfa_bits\[1\]\.rfa\.anc_in
*281 u_rev\.rfa_bits\[1\]\.rfa\.b
*282 u_rev\.rfa_bits\[2\]\.fa_ga
*283 u_rev\.rfa_bits\[2\]\.rfa\.anc_in
*284 u_rev\.rfa_bits\[2\]\.rfa\.b
*285 u_rev\.rfa_bits\[3\]\.fa_ga
*286 u_rev\.rfa_bits\[3\]\.rfa\.anc_in
*287 u_rev\.rfa_bits\[3\]\.rfa\.b
*288 u_rev\.rfa_bits\[4\]\.fa_ga
*289 u_rev\.rfa_bits\[4\]\.rfa\.anc_in
*290 u_rev\.rfa_bits\[4\]\.rfa\.b
*291 u_rev\.rfa_bits\[5\]\.fa_ga
*292 u_rev\.rfa_bits\[5\]\.rfa\.anc_in
*293 u_rev\.rfa_bits\[5\]\.rfa\.b
*294 u_rev\.rfa_bits\[6\]\.fa_ga
*295 u_rev\.rfa_bits\[6\]\.rfa\.anc_in
*296 u_rev\.rfa_bits\[6\]\.rfa\.b
*297 u_rev\.rfa_bits\[7\]\.fa_ga
*298 u_rev\.rfa_bits\[7\]\.rfa\.anc_in
*299 u_rev\.rfa_bits\[7\]\.rfa\.b
*300 FILLER_0_104
*301 FILLER_0_113
*302 FILLER_0_118
*303 FILLER_0_130
*304 FILLER_0_139
*305 FILLER_0_141
*306 FILLER_0_145
*307 FILLER_0_15
*308 FILLER_0_27
*309 FILLER_0_29
*310 FILLER_0_3
*311 FILLER_0_37
*312 FILLER_0_55
*313 FILLER_0_57
*314 FILLER_0_63
*315 FILLER_0_70
*316 FILLER_0_77
*317 FILLER_0_85
*318 FILLER_0_90
*319 FILLER_0_97
*320 FILLER_10_110
*321 FILLER_10_122
*322 FILLER_10_134
*323 FILLER_10_141
*324 FILLER_10_3
*325 FILLER_10_40
*326 FILLER_10_52
*327 FILLER_10_61
*328 FILLER_10_68
*329 FILLER_10_80
*330 FILLER_10_85
*331 FILLER_10_93
*332 FILLER_10_98
*333 FILLER_11_111
*334 FILLER_11_113
*335 FILLER_11_121
*336 FILLER_11_125
*337 FILLER_11_143
*338 FILLER_11_28
*339 FILLER_11_40
*340 FILLER_11_50
*341 FILLER_11_64
*342 FILLER_11_75
*343 FILLER_11_87
*344 FILLER_11_99
*345 FILLER_12_109
*346 FILLER_12_122
*347 FILLER_12_141
*348 FILLER_12_29
*349 FILLER_12_58
*350 FILLER_12_70
*351 FILLER_12_82
*352 FILLER_12_85
*353 FILLER_12_97
*354 FILLER_13_104
*355 FILLER_13_108
*356 FILLER_13_126
*357 FILLER_13_143
*358 FILLER_13_16
*359 FILLER_13_25
*360 FILLER_13_37
*361 FILLER_13_49
*362 FILLER_13_55
*363 FILLER_13_57
*364 FILLER_13_65
*365 FILLER_13_7
*366 FILLER_13_88
*367 FILLER_13_96
*368 FILLER_14_139
*369 FILLER_14_141
*370 FILLER_14_18
*371 FILLER_14_38
*372 FILLER_14_49
*373 FILLER_14_61
*374 FILLER_14_73
*375 FILLER_14_81
*376 FILLER_14_85
*377 FILLER_14_93
*378 FILLER_15_105
*379 FILLER_15_111
*380 FILLER_15_113
*381 FILLER_15_142
*382 FILLER_15_40
*383 FILLER_15_52
*384 FILLER_15_57
*385 FILLER_15_6
*386 FILLER_15_69
*387 FILLER_15_81
*388 FILLER_15_93
*389 FILLER_16_109
*390 FILLER_16_115
*391 FILLER_16_136
*392 FILLER_16_141
*393 FILLER_16_27
*394 FILLER_16_3
*395 FILLER_16_37
*396 FILLER_16_49
*397 FILLER_16_61
*398 FILLER_16_73
*399 FILLER_16_81
*400 FILLER_16_85
*401 FILLER_16_97
*402 FILLER_17_105
*403 FILLER_17_11
*404 FILLER_17_111
*405 FILLER_17_113
*406 FILLER_17_143
*407 FILLER_17_21
*408 FILLER_17_33
*409 FILLER_17_45
*410 FILLER_17_53
*411 FILLER_17_57
*412 FILLER_17_69
*413 FILLER_17_7
*414 FILLER_17_81
*415 FILLER_17_93
*416 FILLER_18_134
*417 FILLER_18_141
*418 FILLER_18_29
*419 FILLER_18_3
*420 FILLER_18_41
*421 FILLER_18_47
*422 FILLER_18_62
*423 FILLER_18_74
*424 FILLER_18_82
*425 FILLER_18_85
*426 FILLER_18_89
*427 FILLER_19_105
*428 FILLER_19_118
*429 FILLER_19_125
*430 FILLER_19_14
*431 FILLER_19_143
*432 FILLER_19_27
*433 FILLER_19_35
*434 FILLER_19_50
*435 FILLER_19_77
*436 FILLER_19_89
*437 FILLER_19_97
*438 FILLER_1_105
*439 FILLER_1_111
*440 FILLER_1_122
*441 FILLER_1_126
*442 FILLER_1_15
*443 FILLER_1_27
*444 FILLER_1_3
*445 FILLER_1_73
*446 FILLER_20_102
*447 FILLER_20_117
*448 FILLER_20_124
*449 FILLER_20_128
*450 FILLER_20_141
*451 FILLER_20_16
*452 FILLER_20_29
*453 FILLER_20_6
*454 FILLER_20_72
*455 FILLER_20_81
*456 FILLER_20_85
*457 FILLER_21_101
*458 FILLER_21_110
*459 FILLER_21_125
*460 FILLER_21_14
*461 FILLER_21_143
*462 FILLER_21_55
*463 FILLER_21_6
*464 FILLER_21_85
*465 FILLER_22_11
*466 FILLER_22_141
*467 FILLER_22_3
*468 FILLER_22_45
*469 FILLER_22_55
*470 FILLER_22_85
*471 FILLER_23_113
*472 FILLER_23_131
*473 FILLER_23_143
*474 FILLER_23_15
*475 FILLER_23_3
*476 FILLER_23_48
*477 FILLER_23_57
*478 FILLER_23_79
*479 FILLER_23_91
*480 FILLER_23_97
*481 FILLER_24_113
*482 FILLER_24_125
*483 FILLER_24_137
*484 FILLER_24_141
*485 FILLER_24_145
*486 FILLER_24_15
*487 FILLER_24_27
*488 FILLER_24_29
*489 FILLER_24_3
*490 FILLER_24_34
*491 FILLER_24_41
*492 FILLER_24_49
*493 FILLER_24_55
*494 FILLER_24_57
*495 FILLER_24_65
*496 FILLER_24_70
*497 FILLER_24_77
*498 FILLER_24_85
*499 FILLER_24_91
*500 FILLER_24_97
*501 FILLER_2_133
*502 FILLER_2_141
*503 FILLER_2_15
*504 FILLER_2_21
*505 FILLER_2_3
*506 FILLER_2_45
*507 FILLER_3_108
*508 FILLER_3_119
*509 FILLER_3_144
*510 FILLER_3_20
*511 FILLER_3_3
*512 FILLER_3_32
*513 FILLER_3_71
*514 FILLER_3_79
*515 FILLER_3_96
*516 FILLER_4_105
*517 FILLER_4_113
*518 FILLER_4_139
*519 FILLER_4_144
*520 FILLER_4_26
*521 FILLER_4_29
*522 FILLER_4_3
*523 FILLER_4_62
*524 FILLER_4_74
*525 FILLER_4_81
*526 FILLER_4_85
*527 FILLER_5_111
*528 FILLER_5_122
*529 FILLER_5_128
*530 FILLER_5_138
*531 FILLER_5_26
*532 FILLER_5_3
*533 FILLER_5_57
*534 FILLER_5_69
*535 FILLER_5_73
*536 FILLER_5_99
*537 FILLER_6_105
*538 FILLER_6_112
*539 FILLER_6_141
*540 FILLER_6_21
*541 FILLER_6_27
*542 FILLER_6_29
*543 FILLER_6_33
*544 FILLER_6_48
*545 FILLER_6_60
*546 FILLER_6_72
*547 FILLER_6_85
*548 FILLER_6_9
*549 FILLER_6_91
*550 FILLER_7_10
*551 FILLER_7_143
*552 FILLER_7_22
*553 FILLER_7_28
*554 FILLER_7_37
*555 FILLER_7_55
*556 FILLER_7_77
*557 FILLER_7_89
*558 FILLER_8_109
*559 FILLER_8_141
*560 FILLER_8_145
*561 FILLER_8_21
*562 FILLER_8_27
*563 FILLER_8_29
*564 FILLER_8_3
*565 FILLER_8_44
*566 FILLER_8_52
*567 FILLER_8_57
*568 FILLER_8_69
*569 FILLER_8_81
*570 FILLER_8_85
*571 FILLER_9_131
*572 FILLER_9_139
*573 FILLER_9_3
*574 FILLER_9_43
*575 FILLER_9_67
*576 FILLER_9_79
*577 FILLER_9_87
*578 PHY_EDGE_ROW_0_Left_25
*579 PHY_EDGE_ROW_0_Right_0
*580 PHY_EDGE_ROW_10_Left_35
*581 PHY_EDGE_ROW_10_Right_10
*582 PHY_EDGE_ROW_11_Left_36
*583 PHY_EDGE_ROW_11_Right_11
*584 PHY_EDGE_ROW_12_Left_37
*585 PHY_EDGE_ROW_12_Right_12
*586 PHY_EDGE_ROW_13_Left_38
*587 PHY_EDGE_ROW_13_Right_13
*588 PHY_EDGE_ROW_14_Left_39
*589 PHY_EDGE_ROW_14_Right_14
*590 PHY_EDGE_ROW_15_Left_40
*591 PHY_EDGE_ROW_15_Right_15
*592 PHY_EDGE_ROW_16_Left_41
*593 PHY_EDGE_ROW_16_Right_16
*594 PHY_EDGE_ROW_17_Left_42
*595 PHY_EDGE_ROW_17_Right_17
*596 PHY_EDGE_ROW_18_Left_43
*597 PHY_EDGE_ROW_18_Right_18
*598 PHY_EDGE_ROW_19_Left_44
*599 PHY_EDGE_ROW_19_Right_19
*600 PHY_EDGE_ROW_1_Left_26
*601 PHY_EDGE_ROW_1_Right_1
*602 PHY_EDGE_ROW_20_Left_45
*603 PHY_EDGE_ROW_20_Right_20
*604 PHY_EDGE_ROW_21_Left_46
*605 PHY_EDGE_ROW_21_Right_21
*606 PHY_EDGE_ROW_22_Left_47
*607 PHY_EDGE_ROW_22_Right_22
*608 PHY_EDGE_ROW_23_Left_48
*609 PHY_EDGE_ROW_23_Right_23
*610 PHY_EDGE_ROW_24_Left_49
*611 PHY_EDGE_ROW_24_Right_24
*612 PHY_EDGE_ROW_2_Left_27
*613 PHY_EDGE_ROW_2_Right_2
*614 PHY_EDGE_ROW_3_Left_28
*615 PHY_EDGE_ROW_3_Right_3
*616 PHY_EDGE_ROW_4_Left_29
*617 PHY_EDGE_ROW_4_Right_4
*618 PHY_EDGE_ROW_5_Left_30
*619 PHY_EDGE_ROW_5_Right_5
*620 PHY_EDGE_ROW_6_Left_31
*621 PHY_EDGE_ROW_6_Right_6
*622 PHY_EDGE_ROW_7_Left_32
*623 PHY_EDGE_ROW_7_Right_7
*624 PHY_EDGE_ROW_8_Left_33
*625 PHY_EDGE_ROW_8_Right_8
*626 PHY_EDGE_ROW_9_Left_34
*627 PHY_EDGE_ROW_9_Right_9
*628 TAP_TAPCELL_ROW_0_50
*629 TAP_TAPCELL_ROW_0_51
*630 TAP_TAPCELL_ROW_0_52
*631 TAP_TAPCELL_ROW_0_53
*632 TAP_TAPCELL_ROW_0_54
*633 TAP_TAPCELL_ROW_10_77
*634 TAP_TAPCELL_ROW_10_78
*635 TAP_TAPCELL_ROW_10_79
*636 TAP_TAPCELL_ROW_11_80
*637 TAP_TAPCELL_ROW_11_81
*638 TAP_TAPCELL_ROW_12_82
*639 TAP_TAPCELL_ROW_12_83
*640 TAP_TAPCELL_ROW_12_84
*641 TAP_TAPCELL_ROW_13_85
*642 TAP_TAPCELL_ROW_13_86
*643 TAP_TAPCELL_ROW_14_87
*644 TAP_TAPCELL_ROW_14_88
*645 TAP_TAPCELL_ROW_14_89
*646 TAP_TAPCELL_ROW_15_90
*647 TAP_TAPCELL_ROW_15_91
*648 TAP_TAPCELL_ROW_16_92
*649 TAP_TAPCELL_ROW_16_93
*650 TAP_TAPCELL_ROW_16_94
*651 TAP_TAPCELL_ROW_17_95
*652 TAP_TAPCELL_ROW_17_96
*653 TAP_TAPCELL_ROW_18_97
*654 TAP_TAPCELL_ROW_18_98
*655 TAP_TAPCELL_ROW_18_99
*656 TAP_TAPCELL_ROW_19_100
*657 TAP_TAPCELL_ROW_19_101
*658 TAP_TAPCELL_ROW_1_55
*659 TAP_TAPCELL_ROW_1_56
*660 TAP_TAPCELL_ROW_20_102
*661 TAP_TAPCELL_ROW_20_103
*662 TAP_TAPCELL_ROW_20_104
*663 TAP_TAPCELL_ROW_21_105
*664 TAP_TAPCELL_ROW_21_106
*665 TAP_TAPCELL_ROW_22_107
*666 TAP_TAPCELL_ROW_22_108
*667 TAP_TAPCELL_ROW_22_109
*668 TAP_TAPCELL_ROW_23_110
*669 TAP_TAPCELL_ROW_23_111
*670 TAP_TAPCELL_ROW_24_112
*671 TAP_TAPCELL_ROW_24_113
*672 TAP_TAPCELL_ROW_24_114
*673 TAP_TAPCELL_ROW_24_115
*674 TAP_TAPCELL_ROW_24_116
*675 TAP_TAPCELL_ROW_2_57
*676 TAP_TAPCELL_ROW_2_58
*677 TAP_TAPCELL_ROW_2_59
*678 TAP_TAPCELL_ROW_3_60
*679 TAP_TAPCELL_ROW_3_61
*680 TAP_TAPCELL_ROW_4_62
*681 TAP_TAPCELL_ROW_4_63
*682 TAP_TAPCELL_ROW_4_64
*683 TAP_TAPCELL_ROW_5_65
*684 TAP_TAPCELL_ROW_5_66
*685 TAP_TAPCELL_ROW_6_67
*686 TAP_TAPCELL_ROW_6_68
*687 TAP_TAPCELL_ROW_6_69
*688 TAP_TAPCELL_ROW_7_70
*689 TAP_TAPCELL_ROW_7_71
*690 TAP_TAPCELL_ROW_8_72
*691 TAP_TAPCELL_ROW_8_73
*692 TAP_TAPCELL_ROW_8_74
*693 TAP_TAPCELL_ROW_9_75
*694 TAP_TAPCELL_ROW_9_76
*695 _143_
*696 _144_
*697 _145_
*698 _146_
*699 _147_
*700 _148_
*701 _149_
*702 _150_
*703 _151_
*704 _152_
*705 _153_
*706 _154_
*707 _155_
*708 _156_
*709 _157_
*710 _158_
*711 _159_
*712 _160_
*713 _161_
*714 _162_
*715 _163_
*716 _164_
*717 _165_
*718 _166_
*719 _167_
*720 _168_
*721 _169_
*722 _170_
*723 _171_
*724 _172_
*725 _173_
*726 _174_
*727 _175_
*728 _176_
*729 _177_
*730 _178_
*731 _179_
*732 _180_
*733 _181_
*734 _182_
*735 _183_
*736 _184_
*737 _185_
*738 _186_
*739 _187_
*740 _188_
*741 _189_
*742 _190_
*743 _191_
*744 _192_
*745 _193_
*746 _194_
*747 _195_
*748 _196_
*749 _197_
*750 _198_
*751 _199_
*752 _200_
*753 _201_
*754 _202_
*755 _203_
*756 _204_
*757 _205_
*758 _206_
*759 _207_
*760 _208_
*761 _209_
*762 _210_
*763 _211_
*764 _212_
*765 _213_
*766 _214_
*767 _215_
*768 _216_
*769 _217_
*770 _218_
*771 _219_
*772 _220_
*773 _221_
*774 _222_
*775 _223_
*776 _224_
*777 _225_
*778 _226_
*779 _227_
*780 _228_
*781 _229_
*782 _230_
*783 _231_
*784 _232_
*785 _233_
*786 _234_
*787 _235_
*788 _236_
*789 _237_
*790 _238_
*791 _239_
*792 _240_
*793 _241_
*794 _242_
*795 _243_
*796 _244_
*797 _245_
*798 _246_
*799 _247_
*800 _248_
*801 _249_
*802 _250_
*803 _251_
*804 _252_
*805 _253_
*806 _254_
*807 _255_
*808 _256_
*809 _257_
*810 _258_
*811 _259_
*812 _260_
*813 _261_
*814 _262_
*815 _263_
*816 _264_
*817 _265_
*818 _266_
*819 _267_
*820 _268_
*821 _269_
*822 _270_
*823 _271_
*824 _272_
*825 _273_
*826 _274_
*827 _275_
*828 _276_
*829 _277_
*830 _278_
*831 _279_
*832 _280_
*833 _281_
*834 _282_
*835 _283_
*836 _284_
*837 _285_
*838 _286_
*839 _287_
*840 _288_
*841 _289_
*842 _290_
*843 _291_
*844 _292_
*845 _293_
*846 _294_
*847 _295_
*848 _296_
*849 _297_
*850 _298_
*851 _299_
*852 _300_
*853 _301_
*854 _302_
*855 _303_
*856 _304_
*857 _305_
*858 _306_
*859 _307_
*860 _308_
*861 _309_
*862 _310_
*863 _311_
*864 _312_
*865 _313_
*866 _314_
*867 _315_
*868 _316_
*869 _317_
*870 _318_
*871 _319_
*872 _320_
*873 _321_
*874 _322_
*875 _323_
*876 _324_
*877 _325_
*878 _326_
*879 _327_
*880 _328_
*881 _329_
*882 _330_
*883 _331_
*884 _332_
*885 _333_
*886 _334_
*887 _335_
*888 clkbuf_0_clk
*889 clkbuf_2_0__f_clk
*890 clkbuf_2_1__f_clk
*891 clkbuf_2_2__f_clk
*892 clkbuf_2_3__f_clk
*893 clkload0
*894 clkload1
*895 clkload2
*896 fanout54
*897 fanout55
*898 fanout56
*899 fanout57
*900 fanout58
*901 fanout59
*902 fanout60
*903 fanout61
*904 fanout62
*905 hold1
*906 hold2
*907 hold3
*908 hold4
*909 hold5
*910 hold6
*911 hold7
*912 hold8
*913 hold9
*914 input1
*915 input10
*916 input11
*917 input12
*918 input13
*919 input14
*920 input15
*921 input16
*922 input17
*923 input18
*924 input19
*925 input2
*926 input20
*927 input21
*928 input22
*929 input23
*930 input24
*931 input25
*932 input26
*933 input27
*934 input3
*935 input4
*936 input5
*937 input6
*938 input7
*939 input8
*940 input9
*941 output28
*942 output29
*943 output30
*944 output31
*945 output32
*946 output33
*947 output34
*948 output35
*949 output36
*950 output37
*951 output38
*952 output39
*953 output40
*954 output41
*955 output42
*956 output43
*957 output44
*958 output45
*959 output46
*960 output47
*961 output48
*962 output49
*963 output50
*964 output51
*965 output52
*966 wire53

*PORTS
a[0] I
a[1] I
a[2] I
a[3] I
a[4] I
a[5] I
a[6] I
a[7] I
anc[0] I
anc[1] I
anc[2] I
anc[3] I
anc[4] I
anc[5] I
anc[6] I
anc[7] I
b[0] I
b[1] I
b[2] I
b[3] I
b[4] I
b[5] I
b[6] I
b[7] I
cin I
clk I
cout O
enable I
g_a[0] O
g_a[1] O
g_a[2] O
g_a[3] O
g_a[4] O
g_a[5] O
g_a[6] O
g_a[7] O
g_ab[0] O
g_ab[1] O
g_ab[2] O
g_ab[3] O
g_ab[4] O
g_ab[5] O
g_ab[6] O
g_ab[7] O
reset I
sum[0] O
sum[1] O
sum[2] O
sum[3] O
sum[4] O
sum[5] O
sum[6] O
sum[7] O

*D_NET *3 0.00154776
*CONN
*P a[0] I
*I *914:A I *D sky130_fd_sc_hd__clkbuf_1
*CAP
1 a[0] 0.000564054
2 *914:A 0
3 *3:9 0.000564054
4 *3:9 g_ab[0] 0
5 *3:9 *781:A0 0.000107969
6 *3:9 *781:A1 7.13587e-05
7 *3:9 *781:S 5.50106e-05
8 *3:9 *922:A 0.000100061
9 *3:9 *261:70 8.52481e-05
*RES
1 a[0] *3:9 27.6564 
2 *3:9 *914:A 23 
*END

*D_NET *4 0.000655266
*CONN
*P a[1] I
*I *925:A I *D sky130_fd_sc_hd__clkbuf_1
*CAP
1 a[1] 0.000298285
2 *925:A 0
3 *4:17 0.000298285
4 *4:17 *13:13 3.12475e-05
5 *4:17 *21:17 2.74495e-05
*RES
1 a[1] *4:17 27.1584 
2 *4:17 *925:A 23 
*END

*D_NET *5 0.000711607
*CONN
*P a[2] I
*I *934:A I *D sky130_fd_sc_hd__clkbuf_1
*CAP
1 a[2] 0.000299701
2 *934:A 0.000299701
3 *934:A g_a[1] 2.12457e-05
4 *934:A *932:A 0
5 *934:A *47:17 2.12457e-05
6 *934:A *256:12 6.97133e-05
*RES
1 a[2] *934:A 49.5439 
*END

*D_NET *6 0.00100427
*CONN
*P a[3] I
*I *935:A I *D sky130_fd_sc_hd__clkbuf_1
*CAP
1 a[3] 0.000502134
2 *935:A 0.000502134
3 *935:A g_a[3] 0
4 *935:A *926:A 0
*RES
1 a[3] *935:A 48.2743 
*END

*D_NET *7 0.000905253
*CONN
*P a[4] I
*I *936:A I *D sky130_fd_sc_hd__clkbuf_1
*CAP
1 a[4] 0.000450519
2 *936:A 0.000450519
3 *936:A g_a[3] 0
4 *936:A *230:10 4.21594e-06
*RES
1 a[4] *936:A 47.3214 
*END

*D_NET *8 0.000994122
*CONN
*P a[5] I
*I *937:A I *D sky130_fd_sc_hd__clkbuf_1
*CAP
1 a[5] 0.000332081
2 *937:A 0.000332081
3 *937:A g_ab[6] 9.8882e-05
4 *937:A sum[6] 9.8882e-05
5 *937:A *909:A 0.000127981
6 *937:A *242:8 4.21594e-06
*RES
1 a[5] *937:A 49.0886 
*END

*D_NET *9 0.00114595
*CONN
*P a[6] I
*I *938:A I *D sky130_fd_sc_hd__clkbuf_1
*CAP
1 a[6] 0.00049064
2 *938:A 0.00049064
3 *938:A *25:11 5.67058e-05
4 *938:A *79:10 0.000107969
*RES
1 a[6] *938:A 48.9993 
*END

*D_NET *10 0.00110095
*CONN
*P a[7] I
*I *939:A I *D sky130_fd_sc_hd__clkbuf_1
*CAP
1 a[7] 0.000550473
2 *939:A 0.000550473
3 *939:A *930:A 0
*RES
1 a[7] *939:A 49.3307 
*END

*D_NET *11 0.00119766
*CONN
*P anc[0] I
*I *940:A I *D sky130_fd_sc_hd__clkbuf_1
*CAP
1 anc[0] 0.000421799
2 *940:A 0
3 *11:11 0.000421799
4 *11:11 *931:A 8.06147e-05
5 *11:11 *255:18 8.76088e-05
6 *11:11 *255:20 9.13766e-05
7 *11:11 *275:10 9.44569e-05
*RES
1 anc[0] *11:11 28.5623 
2 *11:11 *940:A 23 
*END

*D_NET *12 0.00148176
*CONN
*P anc[1] I
*I *915:A I *D sky130_fd_sc_hd__clkbuf_1
*CAP
1 anc[1] 0.000631565
2 *915:A 0
3 *12:15 0.000631565
4 *12:15 g_ab[1] 3.25681e-05
5 *12:15 sum[1] 3.25681e-05
6 *12:15 *959:A 5.50106e-05
7 *12:15 *49:12 9.84794e-05
8 *12:15 *255:8 0
9 *12:15 *255:18 0
*RES
1 anc[1] *12:15 34.566 
2 *12:15 *915:A 23 
*END

*D_NET *13 0.00102099
*CONN
*P anc[2] I
*I *916:A I *D sky130_fd_sc_hd__clkbuf_1
*CAP
1 anc[2] 0.00044534
2 *916:A 0
3 *13:13 0.00044534
4 *13:13 g_ab[1] 0
5 *13:13 *783:A1 5.67058e-05
6 *13:13 *20:17 2.12457e-05
7 *13:13 *256:50 2.11066e-05
8 *13:13 *259:12 0
9 *4:17 *13:13 3.12475e-05
*RES
1 anc[2] *13:13 27.3755 
2 *13:13 *916:A 23 
*END

*D_NET *14 0.000904685
*CONN
*P anc[3] I
*I *917:A I *D sky130_fd_sc_hd__clkbuf_1
*CAP
1 anc[3] 0.000452343
2 *917:A 0.000452343
3 *917:A sum[2] 0
4 *917:A *926:A 0
5 *917:A *246:10 0
*RES
1 anc[3] *917:A 47.3214 
*END

*D_NET *15 0.00119073
*CONN
*P anc[4] I
*I *918:A I *D sky130_fd_sc_hd__clkbuf_1
*CAP
1 anc[4] 0.000393827
2 *918:A 0
3 *15:11 0.000393827
4 *15:11 g_a[4] 0.000137876
5 *15:11 *927:A 8.73764e-05
6 *15:11 *209:8 0.000177822
7 *15:11 *269:8 0
*RES
1 anc[4] *15:11 29.7991 
2 *15:11 *918:A 23 
*END

*D_NET *16 0.000698997
*CONN
*P anc[5] I
*I *919:A I *D sky130_fd_sc_hd__clkbuf_1
*CAP
1 anc[5] 0.000241769
2 *919:A 0.000241769
3 *919:A g_ab[5] 8.97484e-05
4 *919:A *743:B 0
5 *919:A *928:A 8.97484e-05
6 *919:A *210:10 3.59619e-05
7 *919:A *263:54 0
*RES
1 anc[5] *919:A 48.9255 
*END

*D_NET *17 0.000988473
*CONN
*P anc[6] I
*I *920:A I *D sky130_fd_sc_hd__clkbuf_1
*CAP
1 anc[6] 0.000494236
2 *920:A 0.000494236
3 *920:A sum[7] 0
4 *920:A *25:11 0
5 *920:A *252:10 0
*RES
1 anc[6] *920:A 48.3779 
*END

*D_NET *18 0.00110721
*CONN
*P anc[7] I
*I *921:A I *D sky130_fd_sc_hd__clkbuf_1
*CAP
1 anc[7] 0.000538911
2 *921:A 0.000538911
3 *921:A g_a[7] 0
4 *921:A *212:10 2.93845e-05
*RES
1 anc[7] *921:A 49.3307 
*END

*D_NET *19 0.00126769
*CONN
*P b[0] I
*I *922:A I *D sky130_fd_sc_hd__clkbuf_1
*CAP
1 b[0] 0.000576296
2 *922:A 0.000576296
3 *922:A *781:A0 1.50365e-05
4 *3:9 *922:A 0.000100061
*RES
1 b[0] *922:A 49.89 
*END

*D_NET *20 0.000746516
*CONN
*P b[1] I
*I *923:A I *D sky130_fd_sc_hd__clkbuf_1
*CAP
1 b[1] 0.000347011
2 *923:A 0
3 *20:17 0.000347011
4 *20:17 g_ab[1] 3.12475e-05
5 *20:17 *40:8 0
6 *13:13 *20:17 2.12457e-05
*RES
1 b[1] *20:17 28.2148 
2 *20:17 *923:A 23 
*END

*D_NET *21 0.000692318
*CONN
*P b[2] I
*I *924:A I *D sky130_fd_sc_hd__clkbuf_1
*CAP
1 b[2] 0.00031871
2 *924:A 0
3 *21:17 0.00031871
4 *21:17 g_a[1] 1.5289e-05
5 *21:17 *32:14 1.21605e-05
6 *4:17 *21:17 2.74495e-05
*RES
1 b[2] *21:17 27.5105 
2 *21:17 *924:A 23 
*END

*D_NET *22 0.00100488
*CONN
*P b[3] I
*I *926:A I *D sky130_fd_sc_hd__clkbuf_1
*CAP
1 b[3] 0.000500583
2 *926:A 0.000500583
3 *926:A *208:8 3.7122e-06
4 *917:A *926:A 0
5 *935:A *926:A 0
*RES
1 b[3] *926:A 48.2743 
*END

*D_NET *23 0.000956942
*CONN
*P b[4] I
*I *927:A I *D sky130_fd_sc_hd__clkbuf_1
*CAP
1 b[4] 0.000379619
2 *927:A 0.000379619
3 *927:A g_ab[3] 9.8882e-05
4 *927:A *186:8 0
5 *927:A *239:10 1.14452e-05
6 *927:A *263:60 0
7 *15:11 *927:A 8.73764e-05
*RES
1 b[4] *927:A 49.269 
*END

*D_NET *24 0.00097336
*CONN
*P b[5] I
*I *928:A I *D sky130_fd_sc_hd__clkbuf_1
*CAP
1 b[5] 0.000352038
2 *928:A 0.000352038
3 *928:A g_a[5] 8.80361e-05
4 *928:A g_ab[5] 0
5 *928:A *741:B 5.02657e-05
6 *928:A *210:20 0
7 *928:A *232:8 4.21594e-06
8 *928:A *291:10 3.70187e-05
9 *919:A *928:A 8.97484e-05
*RES
1 b[5] *928:A 48.3843 
*END

*D_NET *25 0.0014284
*CONN
*P b[6] I
*I *929:A I *D sky130_fd_sc_hd__clkbuf_1
*CAP
1 b[6] 0.000652267
2 *929:A 0
3 *25:11 0.000652267
4 *25:11 *794:B 1.76557e-05
5 *25:11 *79:10 4.95081e-05
6 *920:A *25:11 0
7 *938:A *25:11 5.67058e-05
*RES
1 b[6] *25:11 28.8579 
2 *25:11 *929:A 23 
*END

*D_NET *26 0.00110997
*CONN
*P b[7] I
*I *930:A I *D sky130_fd_sc_hd__clkbuf_1
*CAP
1 b[7] 0.000554984
2 *930:A 0.000554984
3 *930:A g_a[7] 0
4 *939:A *930:A 0
*RES
1 b[7] *930:A 49.6207 
*END

*D_NET *27 0.00056805
*CONN
*P cin I
*I *931:A I *D sky130_fd_sc_hd__clkbuf_1
*CAP
1 cin 0.000204916
2 *931:A 0.000204916
3 *931:A sum[1] 0
4 *931:A *255:18 7.76035e-05
5 *11:11 *931:A 8.06147e-05
*RES
1 cin *931:A 47.7832 
*END

*D_NET *28 0.00793878
*CONN
*P clk I
*I *888:A I *D sky130_fd_sc_hd__clkbuf_16
*CAP
1 clk 0.00368637
2 *888:A 0
3 *28:9 0.00368637
4 *28:9 *767:A 0
5 *28:9 *772:A0 1.69668e-05
6 *28:9 *772:S 0
7 *28:9 *932:A 7.16204e-05
8 *28:9 *105:10 5.36457e-05
9 *28:9 *166:10 0
10 *28:9 *172:10 0
11 *28:9 *173:8 0.00030233
12 *28:9 *203:151 0.000121474
*RES
1 clk *28:9 38.9581 
2 *28:9 *888:A 38 
*END

*D_NET *29 0.000987333
*CONN
*P cout O
*I *941:X O *D sky130_fd_sc_hd__buf_2
*CAP
1 cout 0.000493667
2 *941:X 0.000493667
3 cout g_a[2] 0
4 cout g_ab[7] 0
*RES
1 *941:X cout 47.7979 
*END

*D_NET *30 0.000576056
*CONN
*P enable I
*I *932:A I *D sky130_fd_sc_hd__clkbuf_1
*CAP
1 enable 0.000236594
2 *932:A 0.000236594
3 *932:A *47:17 3.12475e-05
4 *934:A *932:A 0
5 *28:9 *932:A 7.16204e-05
*RES
1 enable *932:A 48.1354 
*END

*D_NET *31 0.00100658
*CONN
*P g_a[0] O
*I *942:X O *D sky130_fd_sc_hd__buf_2
*CAP
1 g_a[0] 0.000503292
2 *942:X 0.000503292
3 g_a[0] sum[0] 0
4 g_a[0] sum[2] 0
*RES
1 *942:X g_a[0] 47.57 
*END

*D_NET *32 0.00076881
*CONN
*P g_a[1] O
*I *943:X O *D sky130_fd_sc_hd__buf_2
*CAP
1 g_a[1] 7.65184e-05
2 *943:X 0.000283539
3 *32:14 0.000360057
4 *934:A g_a[1] 2.12457e-05
5 *21:17 g_a[1] 1.5289e-05
6 *21:17 *32:14 1.21605e-05
*RES
1 *943:X *32:14 49.9 
2 *32:14 g_a[1] 0.382667 
*END

*D_NET *33 0.00106448
*CONN
*P g_a[2] O
*I *944:X O *D sky130_fd_sc_hd__buf_2
*CAP
1 g_a[2] 0.000520725
2 *944:X 0.000520725
3 g_a[2] *944:A 2.30292e-05
4 cout g_a[2] 0
*RES
1 *944:X g_a[2] 48.2743 
*END

*D_NET *34 0.000928267
*CONN
*P g_a[3] O
*I *945:X O *D sky130_fd_sc_hd__buf_2
*CAP
1 g_a[3] 0.000464134
2 *945:X 0.000464134
3 *935:A g_a[3] 0
4 *936:A g_a[3] 0
*RES
1 *945:X g_a[3] 47.0936 
*END

*D_NET *35 0.000666727
*CONN
*P g_a[4] O
*I *946:X O *D sky130_fd_sc_hd__buf_2
*CAP
1 g_a[4] 0.000237856
2 *946:X 0.000237856
3 g_a[4] *209:8 5.31385e-05
4 *15:11 g_a[4] 0.000137876
*RES
1 *946:X g_a[4] 47.6028 
*END

*D_NET *36 0.000740999
*CONN
*P g_a[5] O
*I *947:X O *D sky130_fd_sc_hd__buf_2
*CAP
1 g_a[5] 0.000256556
2 *947:X 0.000256556
3 g_a[5] sum[6] 9.65101e-05
4 g_a[5] *232:8 4.334e-05
5 g_a[5] *291:10 0
6 *928:A g_a[5] 8.80361e-05
*RES
1 *947:X g_a[5] 48.6592 
*END

*D_NET *37 0.000604914
*CONN
*P g_a[6] O
*I *948:X O *D sky130_fd_sc_hd__buf_2
*CAP
1 g_a[6] 0.000258752
2 *948:X 0.000258752
3 g_a[6] g_ab[6] 8.74113e-05
*RES
1 *948:X g_a[6] 47.6028 
*END

*D_NET *38 0.00107893
*CONN
*P g_a[7] O
*I *949:X O *D sky130_fd_sc_hd__buf_2
*CAP
1 g_a[7] 0.000539467
2 *949:X 0.000539467
3 *921:A g_a[7] 0
4 *930:A g_a[7] 0
*RES
1 *949:X g_a[7] 48.2743 
*END

*D_NET *39 0.00100894
*CONN
*P g_ab[0] O
*I *950:X O *D sky130_fd_sc_hd__buf_2
*CAP
1 g_ab[0] 0.000485902
2 *950:X 0.000485902
3 g_ab[0] sum[0] 0
4 g_ab[0] *261:70 3.71369e-05
5 *3:9 g_ab[0] 0
*RES
1 *950:X g_ab[0] 47.57 
*END

*D_NET *40 0.00132072
*CONN
*P g_ab[1] O
*I *951:X O *D sky130_fd_sc_hd__buf_2
*CAP
1 g_ab[1] 0.000245453
2 *951:X 0.000195429
3 *40:8 0.000440882
4 g_ab[1] sum[1] 0
5 *40:8 *236:10 0.000231034
6 *40:8 *256:50 0.00014411
7 *12:15 g_ab[1] 3.25681e-05
8 *13:13 g_ab[1] 0
9 *20:17 g_ab[1] 3.12475e-05
10 *20:17 *40:8 0
*RES
1 *951:X *40:8 43.9554 
2 *40:8 g_ab[1] 8.84373 
*END

*D_NET *41 0.000672681
*CONN
*P g_ab[2] O
*I *952:X O *D sky130_fd_sc_hd__buf_2
*CAP
1 g_ab[2] 0.000225213
2 *952:X 0.000225213
3 g_ab[2] sum[3] 9.8882e-05
4 g_ab[2] sum[5] 8.74113e-05
5 g_ab[2] *237:8 3.59619e-05
*RES
1 *952:X g_ab[2] 47.955 
*END

*D_NET *42 0.000674473
*CONN
*P g_ab[3] O
*I *953:X O *D sky130_fd_sc_hd__buf_2
*CAP
1 g_ab[3] 0.000226475
2 *953:X 0.000226475
3 g_ab[3] sum[4] 8.74113e-05
4 g_ab[3] *239:10 3.52294e-05
5 *927:A g_ab[3] 9.8882e-05
*RES
1 *953:X g_ab[3] 47.955 
*END

*D_NET *43 0.000736288
*CONN
*P g_ab[4] O
*I *954:X O *D sky130_fd_sc_hd__buf_2
*CAP
1 g_ab[4] 0.000251202
2 *954:X 0.000251202
3 g_ab[4] sum[3] 9.65101e-05
4 g_ab[4] sum[4] 9.65101e-05
5 g_ab[4] *240:10 4.08641e-05
6 g_ab[4] *263:60 0
*RES
1 *954:X g_ab[4] 48.6592 
*END

*D_NET *44 0.000789069
*CONN
*P g_ab[5] O
*I *955:X O *D sky130_fd_sc_hd__buf_2
*CAP
1 g_ab[5] 0.000236299
2 *955:X 0.000236299
3 g_ab[5] sum[5] 9.65101e-05
4 g_ab[5] *210:10 0.000130212
5 *919:A g_ab[5] 8.97484e-05
6 *928:A g_ab[5] 0
*RES
1 *955:X g_ab[5] 48.6592 
*END

*D_NET *45 0.000672681
*CONN
*P g_ab[6] O
*I *956:X O *D sky130_fd_sc_hd__buf_2
*CAP
1 g_ab[6] 0.000225213
2 *956:X 0.000225213
3 g_ab[6] *242:8 3.59619e-05
4 g_a[6] g_ab[6] 8.74113e-05
5 *937:A g_ab[6] 9.8882e-05
*RES
1 *956:X g_ab[6] 47.955 
*END

*D_NET *46 0.00107344
*CONN
*P g_ab[7] O
*I *957:X O *D sky130_fd_sc_hd__buf_2
*CAP
1 g_ab[7] 0.000536719
2 *957:X 0.000536719
3 g_ab[7] sum[7] 0
4 cout g_ab[7] 0
*RES
1 *957:X g_ab[7] 48.2743 
*END

*D_NET *47 0.00067366
*CONN
*P reset I
*I *933:A I *D sky130_fd_sc_hd__clkbuf_1
*CAP
1 reset 0.000310583
2 *933:A 0
3 *47:17 0.000310583
4 *932:A *47:17 3.12475e-05
5 *934:A *47:17 2.12457e-05
*RES
1 reset *47:17 27.5105 
2 *47:17 *933:A 23 
*END

*D_NET *48 0.00100658
*CONN
*P sum[0] O
*I *958:X O *D sky130_fd_sc_hd__buf_2
*CAP
1 sum[0] 0.000503292
2 *958:X 0.000503292
3 g_a[0] sum[0] 0
4 g_ab[0] sum[0] 0
*RES
1 *958:X sum[0] 47.57 
*END

*D_NET *49 0.000916943
*CONN
*P sum[1] O
*I *959:X O *D sky130_fd_sc_hd__buf_2
*CAP
1 sum[1] 0.000179576
2 *959:X 0.000169026
3 *49:12 0.000348602
4 *49:12 *255:18 8.86908e-05
5 g_ab[1] sum[1] 0
6 *931:A sum[1] 0
7 *12:15 sum[1] 3.25681e-05
8 *12:15 *49:12 9.84794e-05
*RES
1 *959:X *49:12 49.5318 
2 *49:12 sum[1] 0.672 
*END

*D_NET *50 0.00100658
*CONN
*P sum[2] O
*I *960:X O *D sky130_fd_sc_hd__buf_2
*CAP
1 sum[2] 0.000503292
2 *960:X 0.000503292
3 g_a[0] sum[2] 0
4 *917:A sum[2] 0
*RES
1 *960:X sum[2] 47.57 
*END

*D_NET *51 0.000922307
*CONN
*P sum[3] O
*I *961:X O *D sky130_fd_sc_hd__buf_2
*CAP
1 sum[3] 0.000345477
2 *961:X 0.000345477
3 sum[3] *263:60 3.59619e-05
4 g_ab[2] sum[3] 9.8882e-05
5 g_ab[4] sum[3] 9.65101e-05
*RES
1 *961:X sum[3] 48.4702 
*END

*D_NET *52 0.000749101
*CONN
*P sum[4] O
*I *962:X O *D sky130_fd_sc_hd__buf_2
*CAP
1 sum[4] 0.00026092
2 *962:X 0.00026092
3 sum[4] *248:8 4.334e-05
4 sum[4] *263:60 0
5 g_ab[3] sum[4] 8.74113e-05
6 g_ab[4] sum[4] 9.65101e-05
*RES
1 *962:X sum[4] 48.6592 
*END

*D_NET *53 0.000603106
*CONN
*P sum[5] O
*I *963:X O *D sky130_fd_sc_hd__buf_2
*CAP
1 sum[5] 0.000209592
2 *963:X 0.000209592
3 sum[5] *263:60 0
4 g_ab[2] sum[5] 8.74113e-05
5 g_ab[5] sum[5] 9.65101e-05
*RES
1 *963:X sum[5] 47.6028 
*END

*D_NET *54 0.000544314
*CONN
*P sum[6] O
*I *964:X O *D sky130_fd_sc_hd__buf_2
*CAP
1 sum[6] 0.000167734
2 *964:X 0.000167734
3 sum[6] *251:8 1.34542e-05
4 g_a[5] sum[6] 9.65101e-05
5 *937:A sum[6] 9.8882e-05
*RES
1 *964:X sum[6] 47.2507 
*END

*D_NET *55 0.00107344
*CONN
*P sum[7] O
*I *965:X O *D sky130_fd_sc_hd__buf_2
*CAP
1 sum[7] 0.000536719
2 *965:X 0.000536719
3 g_ab[7] sum[7] 0
4 *920:A sum[7] 0
*RES
1 *965:X sum[7] 48.2743 
*END

*D_NET *56 0.0020787
*CONN
*I *838:D I *D sky130_fd_sc_hd__dfxtp_1
*I *703:X O *D sky130_fd_sc_hd__and3_1
*CAP
1 *838:D 0.00042909
2 *703:X 9.01449e-05
3 *56:8 0.000519234
4 *838:D *708:A2 0.000110769
5 *838:D *781:A0 0.000194309
6 *838:D *782:B 0.000505765
7 *838:D *73:8 0.000114092
8 *838:D *110:31 0
9 *838:D *110:59 9.88575e-05
10 *838:D *201:59 1.64354e-05
11 *838:D *255:90 0
*RES
1 *703:X *56:8 39.0979 
2 *56:8 *838:D 49.253 
*END

*D_NET *57 0.00114492
*CONN
*I *839:D I *D sky130_fd_sc_hd__dfxtp_1
*I *712:X O *D sky130_fd_sc_hd__o311a_1
*CAP
1 *839:D 0.000206553
2 *712:X 0.000104886
3 *57:8 0.000311439
4 *839:D *261:24 0.000512554
5 *57:8 *116:26 0
6 *57:8 *261:24 9.48381e-06
*RES