*SPEF "ieee 1481-1999"
*DESIGN "carry_select_wrapper"
*DATE "20:14:58 Wednesday November 05, 2025"
*VENDOR "The OpenROAD Project"
*PROGRAM "OpenROAD"
*VERSION "edf00dff99f6c40d67a30c0e22a8191c5d2ed9d6"
*DESIGN_FLOW "NAME_SCOPE LOCAL" "PIN_CAP NONE"
*DIVIDER /
*DELIMITER :
*BUS_DELIMITER []
*T_UNIT 1 NS
*C_UNIT 1 PF
*R_UNIT 1 OHM
*L_UNIT 1 HENRY

*NAME_MAP
*3 a[0]
*4 a[1]
*5 a[2]
*6 a[3]
*7 a[4]
*8 a[5]
*9 a[6]
*10 a[7]
*11 b[0]
*12 b[1]
*13 b[2]
*14 b[3]
*15 b[4]
*16 b[5]
*17 b[6]
*18 b[7]
*19 cin
*20 clk
*21 cout
*22 reset
*23 sum[0]
*24 sum[1]
*25 sum[2]
*26 sum[3]
*27 sum[4]
*28 sum[5]
*29 sum[6]
*30 sum[7]
*31 _000_
*32 _001_
*33 _002_
*34 _003_
*35 _004_
*36 _005_
*37 _006_
*38 _007_
*39 _008_
*40 _009_
*41 _010_
*42 _011_
*43 _012_
*44 _013_
*45 _014_
*46 _015_
*47 _016_
*48 _017_
*49 _018_
*50 _019_
*51 _020_
*52 _021_
*53 _022_
*54 _023_
*55 _024_
*56 _025_
*57 _026_
*58 _027_
*59 _028_
*60 _029_
*61 _030_
*62 _031_
*63 _032_
*64 _033_
*65 _034_
*66 _035_
*67 _036_
*68 _037_
*69 _038_
*70 _039_
*71 _040_
*72 _041_
*73 _042_
*74 _043_
*75 _044_
*76 _045_
*77 _046_
*78 _047_
*79 _048_
*80 _049_
*81 _050_
*82 _051_
*83 _052_
*84 _053_
*85 _054_
*86 _055_
*87 _056_
*88 _057_
*89 _058_
*90 _059_
*91 _060_
*92 _061_
*93 _062_
*94 _063_
*95 _064_
*96 _065_
*97 _066_
*98 _067_
*99 cin_r
*100 clknet_0_clk
*101 clknet_1_0__leaf_clk
*102 clknet_1_1__leaf_clk
*103 cout_c
*104 net1
*105 net10
*106 net11
*107 net12
*108 net13
*109 net14
*110 net15
*111 net16
*112 net17
*113 net18
*114 net19
*115 net2
*116 net20
*117 net21
*118 net22
*119 net23
*120 net24
*121 net25
*122 net26
*123 net27
*124 net28
*125 net29
*126 net3
*127 net30
*128 net31
*129 net32
*130 net33
*131 net34
*132 net35
*133 net4
*134 net5
*135 net6
*136 net7
*137 net8
*138 net9
*139 sum_c\[0\]
*140 sum_c\[1\]
*141 sum_c\[2\]
*142 sum_c\[3\]
*143 sum_c\[4\]
*144 sum_c\[5\]
*145 sum_c\[6\]
*146 sum_c\[7\]
*147 u_cs\.hi_block_c0\.fa0\.a
*148 u_cs\.hi_block_c0\.fa0\.b
*149 u_cs\.hi_block_c0\.fa1\.a
*150 u_cs\.hi_block_c0\.fa1\.b
*151 u_cs\.hi_block_c0\.fa2\.a
*152 u_cs\.hi_block_c0\.fa2\.b
*153 u_cs\.hi_block_c0\.fa3\.a
*154 u_cs\.hi_block_c0\.fa3\.b
*155 u_cs\.lo_block\.fa0\.a
*156 u_cs\.lo_block\.fa0\.b
*157 u_cs\.lo_block\.fa1\.a
*158 u_cs\.lo_block\.fa1\.b
*159 u_cs\.lo_block\.fa2\.a
*160 u_cs\.lo_block\.fa2\.b
*161 u_cs\.lo_block\.fa3\.a
*162 u_cs\.lo_block\.fa3\.b
*163 FILLER_0_15
*164 FILLER_0_23
*165 FILLER_0_3
*166 FILLER_0_52
*167 FILLER_0_57
*168 FILLER_0_69
*169 FILLER_0_80
*170 FILLER_10_26
*171 FILLER_10_37
*172 FILLER_10_49
*173 FILLER_10_61
*174 FILLER_10_90
*175 FILLER_11_100
*176 FILLER_11_21
*177 FILLER_11_29
*178 FILLER_11_38
*179 FILLER_11_50
*180 FILLER_11_57
*181 FILLER_11_69
*182 FILLER_11_77
*183 FILLER_11_87
*184 FILLER_11_9
*185 FILLER_11_93
*186 FILLER_12_11
*187 FILLER_12_15
*188 FILLER_12_27
*189 FILLER_12_29
*190 FILLER_12_3
*191 FILLER_12_41
*192 FILLER_12_53
*193 FILLER_12_65
*194 FILLER_12_73
*195 FILLER_12_82
*196 FILLER_13_103
*197 FILLER_13_23
*198 FILLER_13_35
*199 FILLER_13_47
*200 FILLER_13_55
*201 FILLER_13_57
*202 FILLER_13_69
*203 FILLER_13_73
*204 FILLER_13_77
*205 FILLER_13_89
*206 FILLER_13_93
*207 FILLER_14_104
*208 FILLER_14_41
*209 FILLER_14_53
*210 FILLER_14_61
*211 FILLER_14_65
*212 FILLER_14_96
*213 FILLER_15_15
*214 FILLER_15_49
*215 FILLER_15_54
*216 FILLER_15_9
*217 FILLER_16_100
*218 FILLER_16_3
*219 FILLER_16_37
*220 FILLER_16_59
*221 FILLER_16_7
*222 FILLER_16_82
*223 FILLER_16_85
*224 FILLER_17_15
*225 FILLER_17_23
*226 FILLER_17_27
*227 FILLER_17_29
*228 FILLER_17_3
*229 FILLER_17_36
*230 FILLER_17_44
*231 FILLER_17_49
*232 FILLER_17_55
*233 FILLER_17_70
*234 FILLER_17_82
*235 FILLER_17_85
*236 FILLER_17_97
*237 FILLER_1_100
*238 FILLER_1_104
*239 FILLER_1_15
*240 FILLER_1_21
*241 FILLER_1_3
*242 FILLER_1_57
*243 FILLER_1_65
*244 FILLER_1_86
*245 FILLER_1_91
*246 FILLER_2_27
*247 FILLER_2_29
*248 FILLER_2_37
*249 FILLER_2_41
*250 FILLER_2_6
*251 FILLER_2_70
*252 FILLER_2_78
*253 FILLER_2_85
*254 FILLER_2_97
*255 FILLER_3_100
*256 FILLER_3_3
*257 FILLER_3_30
*258 FILLER_3_40
*259 FILLER_3_57
*260 FILLER_3_68
*261 FILLER_3_79
*262 FILLER_3_91
*263 FILLER_4_18
*264 FILLER_4_26
*265 FILLER_4_29
*266 FILLER_4_41
*267 FILLER_4_52
*268 FILLER_4_6
*269 FILLER_5_20
*270 FILLER_5_32
*271 FILLER_5_40
*272 FILLER_5_51
*273 FILLER_5_55
*274 FILLER_5_57
*275 FILLER_5_6
*276 FILLER_5_69
*277 FILLER_5_73
*278 FILLER_5_89
*279 FILLER_6_23
*280 FILLER_6_37
*281 FILLER_6_54
*282 FILLER_6_66
*283 FILLER_6_81
*284 FILLER_7_23
*285 FILLER_7_29
*286 FILLER_7_55
*287 FILLER_7_80
*288 FILLER_7_84
*289 FILLER_8_18
*290 FILLER_8_26
*291 FILLER_8_42
*292 FILLER_8_6
*293 FILLER_9_26
*294 FILLER_9_54
*295 FILLER_9_57
*296 FILLER_9_65
*297 FILLER_9_81
*298 PHY_EDGE_ROW_0_Left_18
*299 PHY_EDGE_ROW_0_Right_0
*300 PHY_EDGE_ROW_10_Left_28
*301 PHY_EDGE_ROW_10_Right_10
*302 PHY_EDGE_ROW_11_Left_29
*303 PHY_EDGE_ROW_11_Right_11
*304 PHY_EDGE_ROW_12_Left_30
*305 PHY_EDGE_ROW_12_Right_12
*306 PHY_EDGE_ROW_13_Left_31
*307 PHY_EDGE_ROW_13_Right_13
*308 PHY_EDGE_ROW_14_Left_32
*309 PHY_EDGE_ROW_14_Right_14
*310 PHY_EDGE_ROW_15_Left_33
*311 PHY_EDGE_ROW_15_Right_15
*312 PHY_EDGE_ROW_16_Left_34
*313 PHY_EDGE_ROW_16_Right_16
*314 PHY_EDGE_ROW_17_Left_35
*315 PHY_EDGE_ROW_17_Right_17
*316 PHY_EDGE_ROW_1_Left_19
*317 PHY_EDGE_ROW_1_Right_1
*318 PHY_EDGE_ROW_2_Left_20
*319 PHY_EDGE_ROW_2_Right_2
*320 PHY_EDGE_ROW_3_Left_21
*321 PHY_EDGE_ROW_3_Right_3
*322 PHY_EDGE_ROW_4_Left_22
*323 PHY_EDGE_ROW_4_Right_4
*324 PHY_EDGE_ROW_5_Left_23
*325 PHY_EDGE_ROW_5_Right_5
*326 PHY_EDGE_ROW_6_Left_24
*327 PHY_EDGE_ROW_6_Right_6
*328 PHY_EDGE_ROW_7_Left_25
*329 PHY_EDGE_ROW_7_Right_7
*330 PHY_EDGE_ROW_8_Left_26
*331 PHY_EDGE_ROW_8_Right_8
*332 PHY_EDGE_ROW_9_Left_27
*333 PHY_EDGE_ROW_9_Right_9
*334 TAP_TAPCELL_ROW_0_36
*335 TAP_TAPCELL_ROW_0_37
*336 TAP_TAPCELL_ROW_0_38
*337 TAP_TAPCELL_ROW_10_52
*338 TAP_TAPCELL_ROW_10_53
*339 TAP_TAPCELL_ROW_11_54
*340 TAP_TAPCELL_ROW_12_55
*341 TAP_TAPCELL_ROW_12_56
*342 TAP_TAPCELL_ROW_13_57
*343 TAP_TAPCELL_ROW_14_58
*344 TAP_TAPCELL_ROW_14_59
*345 TAP_TAPCELL_ROW_15_60
*346 TAP_TAPCELL_ROW_16_61
*347 TAP_TAPCELL_ROW_16_62
*348 TAP_TAPCELL_ROW_17_63
*349 TAP_TAPCELL_ROW_17_64
*350 TAP_TAPCELL_ROW_17_65
*351 TAP_TAPCELL_ROW_1_39
*352 TAP_TAPCELL_ROW_2_40
*353 TAP_TAPCELL_ROW_2_41
*354 TAP_TAPCELL_ROW_3_42
*355 TAP_TAPCELL_ROW_4_43
*356 TAP_TAPCELL_ROW_4_44
*357 TAP_TAPCELL_ROW_5_45
*358 TAP_TAPCELL_ROW_6_46
*359 TAP_TAPCELL_ROW_6_47
*360 TAP_TAPCELL_ROW_7_48
*361 TAP_TAPCELL_ROW_8_49
*362 TAP_TAPCELL_ROW_8_50
*363 TAP_TAPCELL_ROW_9_51
*364 _068_
*365 _069_
*366 _070_
*367 _071_
*368 _072_
*369 _073_
*370 _074_
*371 _075_
*372 _076_
*373 _077_
*374 _078_
*375 _079_
*376 _080_
*377 _081_
*378 _082_
*379 _083_
*380 _084_
*381 _085_
*382 _086_
*383 _087_
*384 _088_
*385 _089_
*386 _090_
*387 _091_
*388 _092_
*389 _093_
*390 _094_
*391 _095_
*392 _096_
*393 _097_
*394 _098_
*395 _099_
*396 _100_
*397 _101_
*398 _102_
*399 _103_
*400 _104_
*401 _105_
*402 _106_
*403 _107_
*404 _108_
*405 _109_
*406 _110_
*407 _111_
*408 _112_
*409 _113_
*410 _114_
*411 _115_
*412 _116_
*413 _117_
*414 _118_
*415 _119_
*416 _120_
*417 _121_
*418 _122_
*419 _123_
*420 _124_
*421 _125_
*422 _126_
*423 _127_
*424 _128_
*425 _129_
*426 _130_
*427 _131_
*428 _132_
*429 _133_
*430 _134_
*431 _135_
*432 _136_
*433 _137_
*434 _138_
*435 _139_
*436 _140_
*437 _141_
*438 _142_
*439 _143_
*440 _144_
*441 _145_
*442 _146_
*443 _147_
*444 _148_
*445 _149_
*446 _150_
*447 _151_
*448 _152_
*449 _153_
*450 _154_
*451 _155_
*452 _156_
*453 _157_
*454 _158_
*455 _159_
*456 _160_
*457 _161_
*458 _162_
*459 _163_
*460 _164_
*461 _165_
*462 _166_
*463 _167_
*464 _168_
*465 _169_
*466 _170_
*467 clkbuf_0_clk
*468 clkbuf_1_0__f_clk
*469 clkbuf_1_1__f_clk
*470 fanout28
*471 fanout29
*472 fanout30
*473 hold1
*474 hold2
*475 hold3
*476 hold4
*477 hold5
*478 input1
*479 input10
*480 input11
*481 input12
*482 input13
*483 input14
*484 input15
*485 input16
*486 input17
*487 input18
*488 input2
*489 input3
*490 input4
*491 input5
*492 input6
*493 input7
*494 input8
*495 input9
*496 output19
*497 output20
*498 output21
*499 output22
*500 output23
*501 output24
*502 output25
*503 output26
*504 output27

*PORTS
a[0] I
a[1] I
a[2] I
a[3] I
a[4] I
a[5] I
a[6] I
a[7] I
b[0] I
b[1] I
b[2] I
b[3] I
b[4] I
b[5] I
b[6] I
b[7] I
cin I
clk I
cout O
reset I
sum[0] O
sum[1] O
sum[2] O
sum[3] O
sum[4] O
sum[5] O
sum[6] O
sum[7] O

*D_NET *3 0.000995008
*CONN
*P a[0] I
*I *478:A I *D sky130_fd_sc_hd__clkbuf_1
*CAP
1 a[0] 0.000432001
2 *478:A 0.000432001
3 *478:A *486:A 6.31013e-05
4 *478:A *101:124 0
5 *478:A *101:128 6.79057e-05
*RES
1 a[0] *478:A 23.6375 
*END

*D_NET *4 0.000931078
*CONN
*P a[1] I
*I *488:A I *D sky130_fd_sc_hd__clkbuf_1
*CAP
1 a[1] 0.000465539
2 *488:A 0.000465539
3 *488:A cout 0
4 *488:A sum[0] 0
*RES
1 a[1] *488:A 23.05 
*END

*D_NET *5 0.000673102
*CONN
*P a[2] I
*I *489:A I *D sky130_fd_sc_hd__clkbuf_1
*CAP
1 a[2] 0.000230017
2 *489:A 0.000230017
3 *489:A *426:A 0
4 *489:A *452:D 5.33882e-05
5 *489:A *480:A 7.65171e-05
6 *489:A *487:A 8.31618e-05
*RES
1 a[2] *489:A 19.9443 
*END

*D_NET *6 0.00145644
*CONN
*P a[3] I
*I *490:A I *D sky130_fd_sc_hd__clkbuf_1
*CAP
1 a[3] 0.000538491
2 *490:A 0.000538491
3 *490:A sum[2] 0.000144017
4 *490:A sum[3] 0
5 *490:A sum[6] 8.98642e-05
6 *490:A *453:D 0.000145574
7 *490:A *500:A 0
8 *490:A *503:A 0
9 *490:A *125:45 0
10 *490:A *125:47 0
*RES
1 a[3] *490:A 22.9494 
*END

*D_NET *7 0.00118935
*CONN
*P a[4] I
*I *491:A I *D sky130_fd_sc_hd__clkbuf_1
*CAP
1 a[4] 0.000495641
2 *491:A 0.000495641
3 *491:A *454:D 5.52238e-05
4 *491:A *482:A 0
5 *491:A *101:48 0.00014285
*RES
1 a[4] *491:A 23.7286 
*END

*D_NET *8 0.000618322
*CONN
*P a[5] I
*I *492:A I *D sky130_fd_sc_hd__clkbuf_1
*CAP
1 a[5] 0.000295572
2 *492:A 0.000295572
3 *492:A *483:A 2.71788e-05
*RES
1 a[5] *492:A 20.7838 
*END

*D_NET *9 0.000762856
*CONN
*P a[6] I
*I *493:A I *D sky130_fd_sc_hd__clkbuf_1
*CAP
1 a[6] 0.00037013
2 *493:A 0.00037013
3 *493:A *484:A 2.25951e-05
4 *493:A *494:A 0
5 *493:A *101:14 0
*RES
1 a[6] *493:A 22.3017 
*END

*D_NET *10 0.00120477
*CONN
*P a[7] I
*I *494:A I *D sky130_fd_sc_hd__clkbuf_1
*CAP
1 a[7] 0.000489199
2 *494:A 0.000489199
3 *494:A *457:D 0.000134039
4 *494:A *467:A 0
5 *494:A *485:A 9.23325e-05
6 *493:A *494:A 0
*RES
1 a[7] *494:A 22.4296 
*END

*D_NET *11 0.00101131
*CONN
*P b[0] I
*I *495:A I *D sky130_fd_sc_hd__clkbuf_1
*CAP
1 b[0] 0.000505653
2 *495:A 0.000505653
3 *495:A *367:C 0
*RES
1 b[0] *495:A 23.8714 
*END

*D_NET *12 0.00109105
*CONN
*P b[1] I
*I *479:A I *D sky130_fd_sc_hd__clkbuf_1
*CAP
1 b[1] 0.000545527
2 *479:A 0.000545527
3 *479:A sum[0] 0
4 *479:A *497:A 0
*RES
1 b[1] *479:A 24.4071 
*END

*D_NET *13 0.00105649
*CONN
*P b[2] I
*I *480:A I *D sky130_fd_sc_hd__clkbuf_1
*CAP
1 b[2] 0.000389147
2 *480:A 0.000389147
3 *480:A sum[2] 0
4 *480:A sum[7] 0.000102046
5 *480:A *426:A 4.46186e-06
6 *480:A *452:CLK 9.5171e-05
7 *489:A *480:A 7.65171e-05
*RES
1 b[2] *480:A 20.0737 
*END

*D_NET *14 0.000447698
*CONN
*P b[3] I
*I *481:A I *D sky130_fd_sc_hd__clkbuf_1
*CAP
1 b[3] 0.000140687
2 *481:A 0.000140687
3 *481:A sum[3] 8.31618e-05
4 *481:A sum[4] 8.31618e-05
5 *481:A *444:RESET_B 0
*RES
1 b[3] *481:A 18.1229 
*END

*D_NET *15 0.00162892
*CONN
*P b[4] I
*I *482:A I *D sky130_fd_sc_hd__clkbuf_1
*CAP
1 b[4] 0.000799802
2 *482:A 0.000799802
3 *482:A *454:RESET_B 2.93215e-05
4 *491:A *482:A 0
*RES
1 b[4] *482:A 27.9071 
*END

*D_NET *16 0.000696867
*CONN
*P b[5] I
*I *483:A I *D sky130_fd_sc_hd__clkbuf_1
*CAP
1 b[5] 0.000334844
2 *483:A 0.000334844
3 *483:A *463:D 0
4 *483:A *484:A 0
5 *483:A *101:29 0
6 *492:A *483:A 2.71788e-05
*RES
1 b[5] *483:A 21.6946 
*END

*D_NET *17 0.000636167
*CONN
*P b[6] I
*I *484:A I *D sky130_fd_sc_hd__clkbuf_1
*CAP
1 b[6] 0.000306786
2 *484:A 0.000306786
3 *484:A *101:29 0
4 *483:A *484:A 0
5 *493:A *484:A 2.25951e-05
*RES
1 b[6] *484:A 21.0874 
*END

*D_NET *18 0.000746041
*CONN
*P b[7] I
*I *485:A I *D sky130_fd_sc_hd__clkbuf_1
*CAP
1 b[7] 0.000228345
2 *485:A 0.000228345
3 *485:A *465:D 2.06178e-05
4 *485:A *467:A 8.33133e-05
5 *485:A *101:102 9.30878e-05
6 *494:A *485:A 9.23325e-05
*RES
1 b[7] *485:A 19.6413 
*END

*D_NET *19 0.00149072
*CONN
*P cin I
*I *486:A I *D sky130_fd_sc_hd__clkbuf_1
*CAP
1 cin 0.000328297
2 *486:A 0.000328297
3 *486:A *466:D 0.000298075
4 *486:A *467:A 9.23325e-05
5 *486:A *101:111 0.000165157
6 *486:A *101:124 0.000202128
7 *486:A *101:128 1.33343e-05
8 *478:A *486:A 6.31013e-05
*RES
1 cin *486:A 23.4092 
*END

*D_NET *20 0.00441211
*CONN
*P clk I
*I *467:A I *D sky130_fd_sc_hd__clkbuf_16
*CAP
1 clk 0.00195211
2 *467:A 0.00195211
3 *467:A *397:A1 0.000102797
4 *467:A *398:A 0.000229443
5 *485:A *467:A 8.33133e-05
6 *486:A *467:A 9.23325e-05
7 *494:A *467:A 0
*RES
1 clk *467:A 31.209 
*END

*D_NET *21 0.000951893
*CONN
*P cout O
*I *496:X O *D sky130_fd_sc_hd__buf_2
*CAP
1 cout 0.000475946
2 *496:X 0.000475946
3 *488:A cout 0
*RES
1 *496:X cout 23.2643 
*END

*D_NET *22 0.00111624
*CONN
*P reset I
*I *487:A I *D sky130_fd_sc_hd__clkbuf_1
*CAP
1 reset 0.000452858
2 *487:A 0.000452858
3 *487:A sum[1] 0.000105162
4 *487:A *125:31 2.21972e-05
5 *489:A *487:A 8.31618e-05
*RES
1 reset *487:A 18.8435 
*END

*D_NET *23 0.00128393
*CONN
*P sum[0] O
*I *497:X O *D sky130_fd_sc_hd__buf_2
*CAP
1 sum[0] 0.000615806
2 *497:X 0.000615806
3 sum[0] *470:A 5.23142e-05
4 *479:A sum[0] 0
5 *488:A sum[0] 0
*RES
1 *497:X sum[0] 25.0321 
*END

*D_NET *24 0.00100148
*CONN
*P sum[1] O
*I *498:X O *D sky130_fd_sc_hd__buf_2
*CAP
1 sum[1] 0.000413261
2 *498:X 0.000413261
3 sum[1] *416:A 0
4 sum[1] *498:A 6.97972e-05
5 *487:A sum[1] 0.000105162
*RES
1 *498:X sum[1] 22.517 
*END

*D_NET *25 0.0013723
*CONN
*P sum[2] O
*I *499:X O *D sky130_fd_sc_hd__buf_2
*CAP
1 sum[2] 0.000337276
2 *499:X 0.000337276
3 sum[2] sum[7] 0.000102046
4 sum[2] *448:RESET_B 3.78898e-05
5 sum[2] *452:CLK 0.000106552
6 sum[2] *499:A 0.000307246
7 *480:A sum[2] 0
8 *490:A sum[2] 0.000144017
*RES
1 *499:X sum[2] 22.1981 
*END

*D_NET *26 0.000886411
*CONN
*P sum[3] O
*I *500:X O *D sky130_fd_sc_hd__buf_2
*CAP
1 sum[3] 0.000333279
2 *500:X 0.000333279
3 sum[3] sum[4] 0
4 sum[3] sum[6] 0.000105162
5 sum[3] *500:A 3.15282e-05
6 sum[3] *125:47 0
7 *481:A sum[3] 8.31618e-05
8 *490:A sum[3] 0
*RES
1 *500:X sum[3] 19.1624 
*END

*D_NET *27 0.000583426
*CONN
*P sum[4] O
*I *501:X O *D sky130_fd_sc_hd__buf_2
*CAP
1 sum[4] 0.000238415
2 *501:X 0.000238415
3 sum[4] *501:A 2.34337e-05
4 sum[3] sum[4] 0
5 *481:A sum[4] 8.31618e-05
*RES
1 *501:X sum[4] 18.5706 
*END

*D_NET *28 0.00132724
*CONN
*P sum[5] O
*I *502:X O *D sky130_fd_sc_hd__buf_2
*CAP
1 sum[5] 0.000555493
2 *502:X 0.000555493
3 sum[5] *420:A 0
4 sum[5] *445:CLK 0.000119859
5 sum[5] *445:D 6.74815e-05
6 sum[5] *502:A 2.89114e-05
*RES
1 *502:X sum[5] 24.4786 
*END

*D_NET *29 0.000637736
*CONN
*P sum[6] O
*I *503:X O *D sky130_fd_sc_hd__buf_2
*CAP
1 sum[6] 0.000205595
2 *503:X 0.000205595
3 sum[6] *503:A 3.15196e-05
4 sum[3] sum[6] 0.000105162
5 *490:A sum[6] 8.98642e-05
*RES
1 *503:X sum[6] 18.8741 
*END

*D_NET *30 0.000631454
*CONN
*P sum[7] O
*I *504:X O *D sky130_fd_sc_hd__buf_2
*CAP
1 sum[7] 0.000186472
2 *504:X 0.000186472
3 sum[7] *499:A 2.28904e-05
4 sum[7] *504:A 3.15282e-05
5 sum[2] sum[7] 0.000102046
6 *480:A sum[7] 0.000102046
*RES
1 *504:X sum[7] 18.8741 
*END

*D_NET *31 0.00033343
*CONN
*I *441:RESET_B I *D sky130_fd_sc_hd__dfrtp_1
*I *364:Y O *D sky130_fd_sc_hd__inv_2
*CAP
1 *441:RESET_B 9.54333e-05
2 *364:Y 9.54333e-05
3 *441:RESET_B *451:D 0.00010326
4 *441:RESET_B *124:14 7.43578e-06
5 *441:RESET_B *124:16 3.18676e-05
*RES
1 *364:Y *441:RESET_B 20.175 
*END

*D_NET *32 0.000444036
*CONN
*I *442:RESET_B I *D sky130_fd_sc_hd__dfrtp_1
*I *416:Y O *D sky130_fd_sc_hd__inv_2
*CAP
1 *442:RESET_B 0.000130326
2 *416:Y 0.000130326
3 *442:RESET_B *416:A 0.000183384
*RES
1 *416:Y *442:RESET_B 20.8893 
*END

*D_NET *33 0.00065476
*CONN
*I *443:RESET_B I *D sky130_fd_sc_hd__dfrtp_1
*I *417:Y O *D sky130_fd_sc_hd__inv_2
*CAP
1 *443:RESET_B 0.000241155
2 *417:Y 0.000241155
3 *443:RESET_B *499:A 9.23695e-05
4 *443:RESET_B *504:A 8.00806e-05
*RES
1 *417:Y *443:RESET_B 22.9518 
*END

*D_NET *34 0.000428312
*CONN
*I *444:RESET_B I *D sky130_fd_sc_hd__dfrtp_1
*I *418:Y O *D sky130_fd_sc_hd__inv_2
*CAP
1 *444:RESET_B 0.000163676
2 *418:Y 0.000163676
3 *444:RESET_B *418:A 0.00010096
4 *444:RESET_B *461:D 0
5 *444:RESET_B *125:47 0
6 *481:A *444:RESET_B 0
*RES
1 *418:Y *444:RESET_B 21.1929 
*END

*D_NET *35 0.000360686
*CONN
*I *445:RESET_B I *D sky130_fd_sc_hd__dfrtp_1
*I *419:Y O *D sky130_fd_sc_hd__inv_2
*CAP
1 *445:RESET_B 0.000170703
2 *419:Y 0.000170703
3 *445:RESET_B *419:A 1.92789e-05
4 *445:RESET_B *420:A 0
5 *445:RESET_B *501:A 0
*RES
1 *419:Y *445:RESET_B 21.0857 
*END

*D_NET *36 0.00042348
*CONN
*I *446:RESET_B I *D sky130_fd_sc_hd__dfrtp_1
*I *420:Y O *D sky130_fd_sc_hd__inv_2
*CAP
1 *446:RESET_B 0.000196468
2 *420:Y 0.000196468
3 *446:RESET_B *420:A 3.05446e-05
4 *446:RESET_B *445:CLK 0
*RES
1 *420:Y *446:RESET_B 21.4964 
*END

*D_NET *37 0.000300976
*CONN
*I *447:RESET_B I *D sky130_fd_sc_hd__dfrtp_1
*I *421:Y O *D sky130_fd_sc_hd__inv_2
*CAP
1 *447:RESET_B 8.96518e-05
2 *421:Y 8.96518e-05
3 *447:RESET_B *453:D 4.15914e-05
4 *447:RESET_B *125:45 8.00806e-05
*RES
1 *421:Y *447:RESET_B 20.2375 
*END

*D_NET *38 0.000708055
*CONN
*I *448:RESET_B I *D sky130_fd_sc_hd__dfrtp_1
*I *422:Y O *D sky130_fd_sc_hd__inv_2
*CAP
1 *448:RESET_B 0.000134769
2 *422:Y 0.000134769
3 *448:RESET_B *452:CLK 0.00020042
4 *448:RESET_B *499:A 0
5 *448:RESET_B *125:33 6.75007e-05
6 *448:RESET_B *125:39 0.000132706
7 sum[2] *448:RESET_B 3.78898e-05
*RES
1 *422:Y *448:RESET_B 22.9786 
*END

*D_NET *39 0.00032641
*CONN
*I *449:RESET_B I *D sky130_fd_sc_hd__dfrtp_1
*I *423:Y O *D sky130_fd_sc_hd__inv_2
*CAP
1 *449:RESET_B 0.000101609
2 *423:Y 0.000101609
3 *449:RESET_B *124:22 0.000123192
*RES
1 *423:Y *449:RESET_B 11.4161 
*END

*D_NET *40 0.000245919
*CONN
*I *450:RESET_B I *D sky130_fd_sc_hd__dfrtp_1
*I *424:Y O *D sky130_fd_sc_hd__inv_2
*CAP
1 *450:RESET_B 0.000122959
2 *424:Y 0.000122959
3 *450:RESET_B *432:A 0
4 *450:RESET_B *450:D 0
5 *450:RESET_B *466:D 0
*RES
1 *424:Y *450:RESET_B 20.55 
*END

*D_NET *41 0.000416298
*CONN
*I *451:RESET_B I *D sky130_fd_sc_hd__dfrtp_1
*I *425:Y O *D sky130_fd_sc_hd__inv_2
*CAP
1 *451:RESET_B 0.000161961
2 *425:Y 0.000161961
3 *451:RESET_B *451:CLK 0
4 *451:RESET_B *470:A 0
5 *451:RESET_B *102:121 9.23759e-05
*RES
1 *425:Y *451:RESET_B 21.4339 
*END

*D_NET *42 0.000384029
*CONN
*I *452:RESET_B I *D sky130_fd_sc_hd__dfrtp_1
*I *426:Y O *D sky130_fd_sc_hd__inv_2
*CAP
1 *452:RESET_B 9.00149e-05
2 *426:Y 9.00149e-05
3 *452:RESET_B *426:A 0.00010326
4 *452:RESET_B *452:CLK 0.00010074
*RES
1 *426:Y *452:RESET_B 20.5232 
*END

*D_NET *43 0.000217545
*CONN
*I *453:RESET_B I *D sky130_fd_sc_hd__dfrtp_1
*I *427:Y O *D sky130_fd_sc_hd__inv_2
*CAP
1 *453:RESET_B 7.55076e-05
2 *427:Y 7.55076e-05
3 *453:RESET_B *71:10 6.65302e-05
*RES
1 *427:Y *453:RESET_B 19.9429 
*END

*D_NET *44 0.000569864
*CONN
*I *454:RESET_B I *D sky130_fd_sc_hd__dfrtp_1
*I *428:Y O *D sky130_fd_sc_hd__inv_2
*CAP
1 *454:RESET_B 0.000270271
2 *428:Y 0.000270271
3 *454:RESET_B *436:A 0
4 *454:RESET_B *124:36 0
5 *454:RESET_B *147:12 0
6 *454:RESET_B *148:12 0
7 *482:A *454:RESET_B 2.93215e-05
*RES
1 *428:Y *454:RESET_B 22.9786 
*END

*D_NET *45 0.00032399
*CONN
*I *455:RESET_B I *D sky130_fd_sc_hd__dfrtp_1
*I *429:Y O *D sky130_fd_sc_hd__inv_2
*CAP
1 *455:RESET_B 9.35741e-05
2 *429:Y 9.35741e-05
3 *455:RESET_B *429:A 3.18676e-05
4 *455:RESET_B *101:48 0.000104974
*RES
1 *429:Y *455:RESET_B 20.175 
*END

*D_NET *46 0.00101893
*CONN
*I *456:RESET_B I *D sky130_fd_sc_hd__dfrtp_1
*I *430:Y O *D sky130_fd_sc_hd__inv_2
*CAP
1 *456:RESET_B 0.000389089
2 *430:Y 0.000389089
3 *456:RESET_B *430:A 0.000105163
4 *456:RESET_B *464:RESET_B 0.000128154
5 *456:RESET_B *124:30 0
6 *456:RESET_B *124:78 7.43578e-06
7 *456:RESET_B *151:12 0
*RES
1 *430:Y *456:RESET_B 25.0411 
*END

*D_NET *47 0.000372494
*CONN
*I *457:RESET_B I *D sky130_fd_sc_hd__dfrtp_1
*I *431:Y O *D sky130_fd_sc_hd__inv_2
*CAP
1 *457:RESET_B 5.32929e-05
2 *431:Y 5.32929e-05
3 *457:RESET_B *101:10 0.000225731
4 *457:RESET_B *153:8 4.01768e-05
*RES
1 *431:Y *457:RESET_B 11.4161 
*END

*D_NET *48 0.000343768
*CONN
*I *458:RESET_B I *D sky130_fd_sc_hd__dfrtp_1
*I *432:Y O *D sky130_fd_sc_hd__inv_2
*CAP
1 *458:RESET_B 0.000104131
2 *432:Y 0.000104131
3 *458:RESET_B *410:B1 0
4 *458:RESET_B *424:A 7.83587e-05
5 *458:RESET_B *101:128 5.71472e-05
*RES
1 *432:Y *458:RESET_B 20.175 
*END

*D_NET *49 0.00101499
*CONN
*I *459:RESET_B I *D sky130_fd_sc_hd__dfrtp_1
*I *433:Y O *D sky130_fd_sc_hd__inv_2
*CAP
1 *459:RESET_B 0.000407495
2 *433:Y 0.000407495
3 *459:RESET_B *371:A1 0
4 *459:RESET_B *412:A 0
5 *459:RESET_B *425:A 9.90431e-05
6 *459:RESET_B *470:A 0
7 *459:RESET_B *127:40 0.00010096
8 *459:RESET_B *157:10 0
9 *459:RESET_B *158:10 0
*RES
1 *433:Y *459:RESET_B 25.7464 
*END

*D_NET *50 0.000407733
*CONN
*I *460:RESET_B I *D sky130_fd_sc_hd__dfrtp_1
*I *434:Y O *D sky130_fd_sc_hd__inv_2
*CAP
1 *460:RESET_B 0.000108661
2 *434:Y 0.000108661
3 *460:RESET_B *414:B 4.48206e-05
4 *460:RESET_B *434:A 6.30388e-05
5 *460:RESET_B *468:A 6.05161e-06
6 *460:RESET_B *469:A 1.98839e-05
7 *460:RESET_B *100:10 5.66157e-05
*RES
1 *434:Y *460:RESET_B 21.0857 
*END

*D_NET *51 0.000392372
*CONN
*I *461:RESET_B I *D sky130_fd_sc_hd__dfrtp_1
*I *435:Y O *D sky130_fd_sc_hd__inv_2
*CAP
1 *461:RESET_B 0.00019316
2 *435:Y 0.00019316
3 *461:RESET_B *407:A 0
4 *461:RESET_B *435:A 6.05161e-06
5 *461:RESET_B *445:CLK 0
6 *461:RESET_B *73:14 0
*RES
1 *435:Y *461:RESET_B 21.3893 
*END

*D_NET *52 0.00033988
*CONN
*I *462:RESET_B I *D sky130_fd_sc_hd__dfrtp_1
*I *436:Y O *D sky130_fd_sc_hd__inv_2
*CAP
1 *462:RESET_B 6.70999e-05
2 *436:Y 6.70999e-05
3 *462:RESET_B *436:A 6.4549e-05
4 *462:RESET_B *462:D 3.02581e-06
5 *462:RESET_B *148:12 0.000138106
*RES
1 *436:Y *462:RESET_B 11.4161 
*END

*D_NET *53 0.000359823
*CONN
*I *463:RESET_B I *D sky130_fd_sc_hd__dfrtp_1
*I *437:Y O *D sky130_fd_sc_hd__inv_2
*CAP
1 *463:RESET_B 0.000129432
2 *437:Y 0.000129432
3 *463:RESET_B *150:8 0.00010096
*RES
1 *437:Y *463:RESET_B 11.8268 
*END

*D_NET *54 0.000295738
*CONN
*I *464:RESET_B I *D sky130_fd_sc_hd__dfrtp_1
*I *438:Y O *D sky130_fd_sc_hd__inv_2
*CAP
1 *464:RESET_B 8.37921e-05
2 *438:Y 8.37921e-05
3 *456:RESET_B *464:RESET_B 0.000128154
*RES
1 *438:Y *464:RESET_B 20.2464 
*END

*D_NET *55 0.000363025
*CONN
*I *465:RESET_B I *D sky130_fd_sc_hd__dfrtp_1
*I *439:Y O *D sky130_fd_sc_hd__inv_2
*CAP
1 *465:RESET_B 6.80941e-05
2 *439:Y 6.80941e-05
3 *465:RESET_B *127:61 0.000125877
4 *465:RESET_B *154:10 0.00010096
*RES
1 *439:Y *465:RESET_B 11.4161 
*END

*D_NET *56 0.000259956
*CONN
*I *466:RESET_B I *D sky130_fd_sc_hd__dfrtp_1
*I *440:Y O *D sky130_fd_sc_hd__inv_2
*CAP
1 *466:RESET_B 0.000129978
2 *440:Y 0.000129978
3 *466:RESET_B *432:A 0
4 *466:RESET_B *101:102 0
5 *466:RESET_B *101:111 0
*RES
1 *440:Y *466:RESET_B 20.55 
*END

*D_NET *57 0.00143415
*CONN
*I *411:B I *D sky130_fd_sc_hd__nor2_1
*I *410:Y O *D sky130_fd_sc_hd__a21oi_1
*CAP
1 *411:B 0.000367612
2 *410:Y 0.000367612
3 *411:B *365:A 0.00027032
4 *411:B *368:A1 2.27766e-05
5 *411:B *368:B1_N 0.00025632
6 *411:B *432:A 0
7 *411:B *449:D 0
8 *411:B *59:6 5.52302e-05
9 *411:B *60:8 1.20377e-05
10 *411:B *62:8 8.22383e-05
*RES
1 *410:Y *411:B 35.9571 
*END

*D_NET *58 0.00153583
*CONN
*I *414:B I *D sky130_fd_sc_hd__and2_1
*I *413:X O *D sky130_fd_sc_hd__or2_1
*CAP
1 *414:B 0.000665794
2 *413:X 0.000665794
3 *414:B *376:A1 0
4 *414:B *413:A 5.19842e-06
5 *414:B *413:B 9.60875e-05
6 *414:B *66:10 0
7 *414:B *160:6 5.81357e-05
8 *460:RESET_B *414:B 4.48206e-05
*RES
1 *413:X *414:B 36.35 
*END

*D_NET *59 0.00300006
*CONN
*I *368:B1_N I *D sky130_fd_sc_hd__a21boi_1
*I *367:B I *D sky130_fd_sc_hd__and3_1
*I *410:A1 I *D sky130_fd_sc_hd__a21oi_1
*I *365:Y O *D sky130_fd_sc_hd__nand2_1
*CAP
1 *368:B1_N 0.000219575
2 *367:B 0.000217423
3 *410:A1 0.000240477
4 *365:Y 4.09299e-05
5 *59:10 0.000536957
6 *59:6 0.000339562
7 *367:B *367:A 3.04427e-05
8 *367:B *367:C 0.000200406
9 *367:B *424:A 6.73939e-05
10 *367:B *441:CLK 3.34783e-05
11 *368:B1_N *411:A 5.40438e-05
12 *410:A1 *441:CLK 0.000227526
13 *410:A1 *101:128 0.00014183
14 *59:10 *367:C 2.69108e-05
15 *59:10 *424:A 7.90803e-05
16 *59:10 *441:CLK 3.18185e-05
17 *59:10 *60:14 7.6644e-05
18 *59:10 *124:28 0.00012401
19 *411:B *368:B1_N 0.00025632
20 *411:B *59:6 5.52302e-05
*RES
1 *365:Y *59:6 9.83571 
2 *59:6 *59:10 7.05357 
3 *59:10 *410:A1 17.2107 
4 *59:10 *367:B 18.2107 
5 *59:6 *368:B1_N 21.6214 
*END

*D_NET *60 0.0036572
*CONN
*I *368:A2 I *D sky130_fd_sc_hd__a21boi_1
*I *367:C I *D sky130_fd_sc_hd__and3_1
*I *410:A2 I *D sky130_fd_sc_hd__a21oi_1
*I *366:X O *D sky130_fd_sc_hd__or2_1
*CAP
1 *368:A2 0
2 *367:C 0.000442152
3 *410:A2 0.00037307
4 *366:X 0.000309219
5 *60:14 0.000953629
6 *60:8 0.000447626
7 *367:C *367:A 1.95435e-05
8 *367:C *411:A 0
9 *367:C *441:CLK 0.000196765
10 *367:C *156:8 4.58194e-05
11 *410:A2 *441:CLK 4.22519e-05
12 *410:A2 *449:CLK 0
13 *410:A2 *101:128 0.000105163
14 *410:A2 *124:22 6.81803e-05
15 *60:8 *365:A 6.58664e-05
16 *60:8 *365:B 0.000106825
17 *60:8 *62:8 1.17091e-05
18 *60:8 *155:8 0.00010096
19 *60:14 *441:CLK 1.76064e-05
20 *60:14 *124:28 3.48139e-05
21 *367:B *367:C 0.000200406
22 *411:B *60:8 1.20377e-05
23 *495:A *367:C 0
24 *59:10 *367:C 2.69108e-05
25 *59:10 *60:14 7.6644e-05
*RES
1 *366:X *60:8 13.8536 
2 *60:8 *60:14 6.98214 
3 *60:14 *410:A2 19.7286 
4 *60:14 *367:C 31.4607 
5 *60:8 *368:A2 9.3 
*END

*D_NET *61 0.0014063
*CONN
*I *411:A I *D sky130_fd_sc_hd__nor2_1
*I *367:X O *D sky130_fd_sc_hd__and3_1
*CAP
1 *411:A 0.000386323
2 *367:X 0.000386323
3 *411:A *367:A 0.000212212
4 *411:A *368:A1 0.000367396
5 *367:C *411:A 0
6 *368:B1_N *411:A 5.40438e-05
*RES
1 *367:X *411:A 35.7607 
*END

*D_NET *62 0.00388775
*CONN
*I *370:B I *D sky130_fd_sc_hd__xnor2_1
*I *369:A_N I *D sky130_fd_sc_hd__and2b_1
*I *368:Y O *D sky130_fd_sc_hd__a21boi_1
*CAP
1 *370:B 0.000495495
2 *369:A_N 0
3 *368:Y 0.000935153
4 *62:8 0.00143065
5 *370:B *369:B 0.00018372
6 *370:B *370:A 0.000216123
7 *370:B *371:A1 5.41794e-05
8 *370:B *371:B1 9.22103e-06
9 *370:B *412:B 0.000276858
10 *370:B *157:10 6.8646e-06
11 *62:8 *368:A1 0.000185541
12 *411:B *62:8 8.22383e-05
13 *60:8 *62:8 1.17091e-05
*RES
1 *368:Y *62:8 24.6393 
2 *62:8 *369:A_N 9.3 
3 *62:8 *370:B 26.7821 
*END

*D_NET *63 0.0013537
*CONN
*I *371:B1 I *D sky130_fd_sc_hd__a21oi_1
*I *369:X O *D sky130_fd_sc_hd__and2b_1
*CAP
1 *371:B1 0.000234758
2 *369:X 0.000234758
3 *371:B1 *369:B 2.59633e-05
4 *371:B1 *370:A 0.00027032
5 *371:B1 *371:A1 0.000399841
6 *371:B1 *371:A2 1.74352e-05
7 *371:B1 *412:A 7.95298e-05
8 *371:B1 *412:B 8.18783e-05
9 *370:B *371:B1 9.22103e-06
*RES
1 *369:X *371:B1 25.725 
*END

*D_NET *64 0.00136335
*CONN
*I *371:A2 I *D sky130_fd_sc_hd__a21oi_1
*I *412:B I *D sky130_fd_sc_hd__xor2_1
*I *370:Y O *D sky130_fd_sc_hd__xnor2_1
*CAP
1 *371:A2 0.000103407
2 *412:B 0.000152031
3 *370:Y 0
4 *64:4 0.000255438
5 *371:A2 *371:A1 4.6677e-05
6 *371:A2 *65:14 5.71472e-05
7 *412:B *370:A 4.59075e-05
8 *412:B *442:D 0.000227532
9 *412:B *65:14 9.90431e-05
10 *370:B *412:B 0.000276858
11 *371:B1 *371:A2 1.74352e-05
12 *371:B1 *412:B 8.18783e-05
*RES
1 *370:Y *64:4 9.3 
2 *64:4 *412:B 14.3714 
3 *64:4 *371:A2 11.925 
*END

*D_NET *65 0.0023851
*CONN
*I *372:A_N I *D sky130_fd_sc_hd__and2b_1
*I *374:B I *D sky130_fd_sc_hd__xnor2_1
*I *371:Y O *D sky130_fd_sc_hd__a21oi_1
*CAP
1 *372:A_N 0.00013238
2 *374:B 7.51047e-05
3 *371:Y 0.000680498
4 *65:14 0.000887983
5 *372:A_N *372:B 6.58195e-05
6 *374:B *374:A 6.5647e-05
7 *65:14 *374:A 0.000128496
8 *65:14 *416:A 0
9 *65:14 *442:D 9.25014e-06
10 *65:14 *102:113 0
11 *65:14 *125:31 0
12 *65:14 *159:6 0.000183726
13 *371:A2 *65:14 5.71472e-05
14 *412:B *65:14 9.90431e-05
*RES
1 *371:Y *65:14 29.5857 
2 *65:14 *374:B 10.675 
3 *65:14 *372:A_N 20.8536 
*END

*D_NET *66 0.00201435
*CONN
*I *377:B I *D sky130_fd_sc_hd__or3b_1
*I *373:A I *D sky130_fd_sc_hd__inv_2
*I *372:X O *D sky130_fd_sc_hd__and2b_1
*CAP
1 *377:B 0
2 *373:A 0.000109344
3 *372:X 0.00030102
4 *66:10 0.000410364
5 *373:A *376:A1 0.000252063
6 *373:A *453:CLK 2.89114e-05
7 *373:A *453:D 1.74352e-05
8 *373:A *102:10 2.49484e-05
9 *373:A *102:12 7.05982e-05
10 *373:A *102:14 2.49484e-05
11 *373:A *102:16 4.46186e-06
12 *66:10 *372:B 0.000109826
13 *66:10 *375:B 6.05161e-06
14 *66:10 *376:A1 0.000140375
15 *66:10 *413:B 0.00024705
16 *66:10 *460:D 7.2473e-05
17 *66:10 *68:10 4.80729e-05
18 *66:10 *102:10 4.15914e-05
19 *66:10 *102:100 0.000104813
20 *414:B *66:10 0
*RES
1 *372:X *66:10 21.7464 
2 *66:10 *373:A 17.4964 
3 *66:10 *377:B 13.8 
*END

*D_NET *67 0.00169455
*CONN
*I *376:A1 I *D sky130_fd_sc_hd__a21boi_1
*I *373:Y O *D sky130_fd_sc_hd__inv_2
*CAP
1 *376:A1 0.000199829
2 *373:Y 0.000199829
3 *376:A1 *376:B1_N 0.000174812
4 *376:A1 *443:D 3.97677e-05
5 *376:A1 *453:CLK 1.00073e-05
6 *376:A1 *453:D 5.71472e-05
7 *376:A1 *469:A 0.000230475
8 *376:A1 *69:24 0.00014285
9 *376:A1 *70:16 9.10431e-06
10 *376:A1 *102:16 1.78447e-05
11 *376:A1 *161:10 0.000220448
12 *373:A *376:A1 0.000252063
13 *414:B *376:A1 0
14 *66:10 *376:A1 0.000140375
*RES
1 *373:Y *376:A1 35.9036 
*END

*D_NET *68 0.00142339
*CONN
*I *375:B I *D sky130_fd_sc_hd__nand2_1
*I *413:B I *D sky130_fd_sc_hd__or2_1
*I *374:Y O *D sky130_fd_sc_hd__xnor2_1
*CAP
1 *375:B 3.15764e-05
2 *413:B 0.000108925
3 *374:Y 0.000125306
4 *68:10 0.000265807
5 *375:B *460:D 2.59355e-05
6 *413:B *460:CLK 2.59355e-05
7 *413:B *102:100 5.66157e-05
8 *413:B *102:113 0.000187026
9 *413:B *160:6 8.25843e-06
10 *68:10 *372:B 3.34687e-05
11 *68:10 *374:A 3.69047e-06
12 *68:10 *102:113 0.00012401
13 *68:10 *159:6 2.95726e-05
14 *414:B *413:B 9.60875e-05
15 *66:10 *375:B 6.05161e-06
16 *66:10 *413:B 0.00024705
17 *66:10 *68:10 4.80729e-05
*RES
1 *374:Y *68:10 16.3893 
2 *68:10 *413:B 17.9071 
3 *68:10 *375:B 14.3357 
*END

*D_NET *69 0.00280683
*CONN